
     RDKit          2D

  4  3  0  0  0  0  0  0  0  0999 V2000
   -0.2083    0.0000    0.0000 Si  0  0  0  0  0  4  0  0  0  0  0  0
   -0.2083   -0.8167    0.0000 O   0  0  0  0  0  0  0  0  0  0  0  0
    0.6167    0.0000    0.0000 O   0  0  0  0  0  0  0  0  0  0  0  0
   -0.2083    0.8250    0.0000 O   0  0  0  0  0  0  0  0  0  0  0  0
  2  1  1  0
  3  1  1  0
  4  1  2  0
M  END
> <chembl_id>
CHEMBL2068408

> <chembl_pref_name>
SILICATE

$$$$

     RDKit          2D

 14 14  0  0  0  0  0  0  0  0999 V2000
    4.2042   -4.1792    0.0000 P   0  0  0  0  0  0  0  0  0  0  0  0
    4.2042   -4.8875    0.0000 N   0  0  0  0  0  0  0  0  0  0  0  0
    3.6000   -3.8167    0.0000 O   0  0  0  0  0  0  0  0  0  0  0  0
    4.4542   -3.5125    0.0000 O   0  0  0  0  0  0  0  0  0  0  0  0
    4.8292   -4.5042    0.0000 N   0  0  0  0  0  0  0  0  0  0  0  0
    4.8042   -5.2375    0.0000 C   0  0  0  0  0  0  0  0  0  0  0  0
    5.4292   -4.1292    0.0000 C   0  0  0  0  0  0  0  0  0  0  0  0
    3.5875   -5.2375    0.0000 C   0  0  0  0  0  0  0  0  0  0  0  0
    6.0375   -5.2417    0.0000 Cl  0  0  0  0  0  0  0  0  0  0  0  0
    6.6625   -4.0792    0.0000 Cl  0  0  0  0  0  0  0  0  0  0  0  0
    2.9750   -4.8750    0.0000 C   0  0  0  0  0  0  0  0  0  0  0  0
    2.9792   -4.1625    0.0000 C   0  0  0  0  0  0  0  0  0  0  0  0
    5.4292   -4.8875    0.0000 C   0  0  0  0  0  0  0  0  0  0  0  0
    6.0667   -4.4542    0.0000 C   0  0  0  0  0  0  0  0  0  0  0  0
  2  1  1  0
  3  1  1  0
  4  1  2  0
  5  1  1  0
  6  2  1  0
  7  5  1  0
  8  2  1  0
  9 13  1  0
 10 14  1  0
 11 12  1  0
 12  3  1  0
 13  6  1  0
 14  7  1  0
 11  8  1  0
M  END
> <chembl_id>
CHEMBL1024

> <chembl_pref_name>
IFOSFAMIDE

$$$$

     RDKit          2D

  3  2  0  0  0  0  0  0  0  0999 V2000
    5.6917   -4.6875    0.0000 O   0  0  0  0  0  0  0  0  0  0  0  0
    5.0792   -5.0375    0.0000 C   0  0  0  0  0  0  0  0  0  0  0  0
    4.4542   -4.6875    0.0000 C   0  0  0  0  0  0  0  0  0  0  0  0
  2  1  1  0
  3  2  1  0
M  END
> <chembl_id>
CHEMBL545

> <chembl_pref_name>
ALCOHOL

$$$$

     RDKit          2D

 18 18  0  0  1  0  0  0  0  0999 V2000
    0.7667   -1.3292    0.0000 C   0  0  0  0  0  0  0  0  0  0  0  0
    1.3792   -1.6792    0.0000 C   0  0  0  0  0  0  0  0  0  0  0  0
    0.1542   -1.6792    0.0000 N   0  0  0  0  0  0  0  0  0  0  0  0
    2.0000   -1.3292    0.0000 N   0  0  0  0  0  0  0  0  0  0  0  0
   -0.4583   -1.3292    0.0000 C   0  0  0  0  0  0  0  0  0  0  0  0
    1.3792   -2.3917    0.0000 O   0  0  0  0  0  0  0  0  0  0  0  0
   -0.4583   -0.6167    0.0000 O   0  0  0  0  0  0  0  0  0  0  0  0
    2.6125   -1.6792    0.0000 C   0  0  0  0  0  0  0  0  0  0  0  0
    0.7667   -0.6167    0.0000 C   0  0  0  0  0  0  0  0  0  0  0  0
    3.2250   -1.3292    0.0000 C   0  0  0  0  0  0  0  0  0  0  0  0
    1.3792   -0.2667    0.0000 O   0  0  0  0  0  0  0  0  0  0  0  0
   -1.0708   -1.6792    0.0000 C   0  0  0  0  0  0  0  0  0  0  0  0
    3.8375   -1.6875    0.0000 C   0  0  0  0  0  0  0  0  0  0  0  0
    3.2167   -0.6250    0.0000 C   0  0  0  0  0  0  0  0  0  0  0  0
    1.3792    0.4458    0.0000 C   0  0  0  0  0  0  0  0  0  0  0  0
    4.4500   -1.3292    0.0000 C   0  0  0  0  0  0  0  0  0  0  0  0
    3.8292   -0.2667    0.0000 C   0  0  0  0  0  0  0  0  0  0  0  0
    4.4500   -0.6250    0.0000 C   0  0  0  0  0  0  0  0  0  0  0  0
  2  1  1  0
  3  1  1  0
  4  2  1  0
  5  3  1  0
  6  2  2  0
  7  5  2  0
  8  4  1  0
  1  9  1  6
 10  8  1  0
 11  9  1  0
 12  5  1  0
 13 10  2  0
 14 10  1  0
 15 11  1  0
 16 13  1  0
 17 14  2  0
 18 17  1  0
 18 16  2  0
M  END
> <chembl_id>
CHEMBL58323

> <chembl_pref_name>
ERLOSAMIDE

$$$$

     RDKit          2D

 16 16  0  0  0  0  0  0  0  0999 V2000
    0.4292    0.2583    0.0000 C   0  0  0  0  0  0  0  0  0  0  0  0
   -1.7125    1.4958    0.0000 N   0  0  0  0  0  0  0  0  0  0  0  0
   -1.6958   -0.9792    0.0000 N   0  0  0  0  0  0  0  0  0  0  0  0
   -0.2750    1.4958    0.0000 C   0  0  0  0  0  0  0  0  0  0  0  0
   -0.2750   -0.9792    0.0000 C   0  0  0  0  0  0  0  0  0  0  0  0
   -2.4000    0.2583    0.0000 C   0  0  0  0  0  0  0  0  0  0  0  0
    1.5125    1.1833    0.0000 C   0  0  0  0  0  0  0  0  0  0  0  0
    0.4500   -2.2417    0.0000 O   0  0  0  0  0  0  0  0  0  0  0  0
    0.4292    2.7583    0.0000 O   0  0  0  0  0  0  0  0  0  0  0  0
   -3.8458    0.2583    0.0000 O   0  0  0  0  0  0  0  0  0  0  0  0
    1.5542   -0.6667    0.0000 C   0  0  0  0  0  0  0  0  0  0  0  0
    1.3167   -2.0875    0.0000 C   0  0  0  0  0  0  0  0  0  0  0  0
    2.4167   -2.9750    0.0000 C   0  0  0  0  0  0  0  0  0  0  0  0
    2.8667    0.7083    0.0000 C   0  0  0  0  0  0  0  0  0  0  0  0
    3.9542    1.6333    0.0000 O   0  0  0  0  0  0  0  0  0  0  0  0
    3.1417   -0.6875    0.0000 C   0  0  0  0  0  0  0  0  0  0  0  0
  2  4  1  0
  3  5  1  0
  4  1  1  0
  5  1  1  0
  6  3  1  0
  7  1  1  0
  8  5  2  0
  9  4  2  0
 10  6  2  0
 11  1  1  0
 12 11  1  0
 13 12  2  0
 14  7  1  0
 15 14  1  0
 16 14  1  0
  2  6  1  0
M  END
> <chembl_id>
CHEMBL2105233

> <chembl_pref_name>
PROXIBARBAL

$$$$

     RDKit          2D

 19 19  0  0  0  0  0  0  0  0999 V2000
    2.9080   -3.2940    0.0000 C   0  0  0  0  0  0  0  0  0  0  0  0
    3.7327   -3.3187    0.0000 C   0  0  0  0  0  0  0  0  0  0  0  0
    4.2661   -2.6894    0.0000 C   0  0  0  0  0  0  0  0  0  0  0  0
    5.2840   -3.6922    0.0000 N   0  0  0  0  0  0  0  0  0  0  0  0
    5.0646   -2.8970    0.0000 C   0  0  0  0  0  0  0  0  0  0  0  0
    5.6435   -2.3092    0.0000 O   0  0  0  0  0  0  0  0  0  0  0  0
    4.1067   -1.8799    0.0000 N   0  0  0  0  0  0  0  0  0  0  0  0
    2.4132   -2.6339    0.0000 C   0  0  0  0  0  0  0  0  0  0  0  0
    3.1657   -2.0453    0.0000 C   0  0  0  0  0  0  0  0  0  0  0  0
    2.6207   -1.8355    0.0000 N   0  0  0  0  0  0  0  0  0  0  0  0
    1.9406   -3.3102    0.0000 H   0  0  0  0  0  0  0  0  0  0  0  0
    3.3744   -1.4999    0.0000 C   0  0  0  0  0  0  0  0  0  0  0  0
    3.3991   -0.6753    0.0000 O   0  0  0  0  0  0  0  0  0  0  0  0
    1.2148   -1.5803    0.0000 S   0  0  0  0  0  0  0  0  0  0  0  0
    0.4381   -1.8586    0.0000 O   0  0  0  0  0  0  0  0  0  0  0  0
    1.9914   -1.3020    0.0000 O   0  0  0  0  0  0  0  0  0  0  0  0
    0.9365   -0.8037    0.0000 O   0  0  0  0  0  0  0  0  0  0  0  0
    1.4930   -2.3570    0.0000 O   0  0  0  0  0  0  0  0  0  0  0  0
    0.0456   -0.7751    0.0000 Na  0  0  0  0  0 15  0  0  0  0  0  0
  1  2  1  0
  1  8  1  0
  2  3  1  0
  3  5  1  6
  4  5  1  0
  5  6  2  0
  7  3  1  0
  7 12  1  0
  8  9  1  0
  8 10  1  0
  8 11  1  6
 10 12  1  0
 10 16  1  0
 12 13  2  0
 14 15  2  0
 14 16  1  0
 14 17  1  0
 18 14  2  0
  7  9  1  0
M  CHG  2  17  -1  19   1
M  END
> <chembl_id>
CHEMBL2107817

> <chembl_pref_name>
AVIBACTAM SODIUM

$$$$

     RDKit          2D

 13 12  0  0  0  0  0  0  0  0999 V2000
    4.1625    0.8833    0.0000 Cl  0  0  0  0  0  0  0  0  0  0  0  0
   -0.5500    0.5500    0.0000 C   0  0  0  0  0  0  0  0  0  0  0  0
    0.1625    0.5500    0.0000 N   0  0  0  0  0  0  0  0  0  0  0  0
   -1.1708    0.2000    0.0000 N   0  0  0  0  0  0  0  0  0  0  0  0
   -0.7708    1.2292    0.0000 C   0  0  0  0  0  0  0  0  0  0  0  0
   -0.1958    1.6458    0.0000 N   0  0  0  0  0  0  0  0  0  0  0  0
    0.3792    1.2292    0.0000 C   0  0  0  0  0  0  0  0  0  0  0  0
   -1.7958    0.5542    0.0000 O   0  0  0  0  0  0  0  0  0  0  0  0
   -1.1750   -0.5125    0.0000 O   0  0  0  0  0  0  0  0  0  0  0  0
    0.7750    0.2000    0.0000 C   0  0  0  0  0  0  0  0  0  0  0  0
    0.9917    1.5917    0.0000 C   0  0  0  0  0  0  0  0  0  0  0  0
    2.0042    0.2000    0.0000 O   0  0  0  0  0  0  0  0  0  0  0  0
    1.3875    0.5542    0.0000 C   0  0  0  0  0  0  0  0  0  0  0  0
  3  2  1  0
  4  2  1  0
  5  2  2  0
  6  5  1  0
  7  3  1  0
  8  4  1  0
  9  4  2  0
 10  3  1  0
 11  7  1  0
 12 13  1  0
 13 10  1  0
  6  7  2  0
M  CHG  2   4   1   8  -1
M  END
> <chembl_id>
CHEMBL1200869

> <chembl_pref_name>
METRONIDAZOLE HYDROCHLORIDE

$$$$

     RDKit          2D

 16 16  0  0  0  0  0  0  0  0999 V2000
   -1.4958    1.1208    0.0000 C   0  0  0  0  0  0  0  0  0  0  0  0
   -0.0708    1.1208    0.0000 C   0  0  0  0  0  0  0  0  0  0  0  0
    0.6292   -0.1125    0.0000 C   0  0  0  0  0  0  0  0  0  0  0  0
    2.0542   -0.1125    0.0000 C   0  0  0  0  0  0  0  0  0  0  0  0
   -2.2083   -0.1125    0.0000 N   0  0  0  0  0  0  0  0  0  0  0  0
   -2.2083    2.3458    0.0000 O   0  0  0  0  0  0  0  0  0  0  0  0
    2.7667    1.1208    0.0000 C   0  0  0  0  0  0  0  0  0  0  0  0
    0.6292    2.3458    0.0000 C   0  0  0  0  0  0  0  0  0  0  0  0
    2.0542    2.3458    0.0000 C   0  0  0  0  0  0  0  0  0  0  0  0
    2.7667   -1.3417    0.0000 O   0  0  0  0  0  0  0  0  0  0  0  0
    4.1875    1.1208    0.0000 O   0  0  0  0  0  0  0  0  0  0  0  0
   -1.4750   -1.3250    0.0000 C   0  0  0  0  0  0  0  0  0  0  0  0
   -3.6333   -0.1125    0.0000 C   0  0  0  0  0  0  0  0  0  0  0  0
    2.0667   -2.5625    0.0000 C   0  0  0  0  0  0  0  0  0  0  0  0
   -4.3458   -1.3417    0.0000 C   0  0  0  0  0  0  0  0  0  0  0  0
   -0.0583   -1.3042    0.0000 C   0  0  0  0  0  0  0  0  0  0  0  0
  2  1  1  0
  3  2  2  0
  4  3  1  0
  5  1  1  0
  6  1  2  0
  7  9  1  0
  8  2  1  0
  9  8  2  0
 10  4  1  0
 11  7  1  0
 12  5  1  0
 13  5  1  0
 14 10  1  0
 15 13  1  0
 16 12  1  0
  4  7  2  0
M  END
> <chembl_id>
CHEMBL1229908

> <chembl_pref_name>
ETHAMIVAN

$$$$

     RDKit          2D

 11 11  0  0  1  0  0  0  0  0999 V2000
    6.3042   -4.4792    0.0000 C   0  0  0  0  0  0  0  0  0  0  0  0
    5.6792   -4.8292    0.0000 C   0  0  0  0  0  0  0  0  0  0  0  0
    6.3167   -3.7750    0.0000 O   0  0  0  0  0  0  0  0  0  0  0  0
    5.0625   -4.4917    0.0000 C   0  0  0  0  0  0  0  0  0  0  0  0
    5.6917   -5.5417    0.0000 C   0  0  0  0  0  0  0  0  0  0  0  0
    6.9167   -4.8250    0.0000 O   0  0  0  0  0  0  0  0  0  0  0  0
    4.4542   -4.8500    0.0000 C   0  0  0  0  0  0  0  0  0  0  0  0
    5.0875   -5.9042    0.0000 C   0  0  0  0  0  0  0  0  0  0  0  0
    3.2292   -5.5750    0.0000 N   0  0  0  0  0  0  0  0  0  0  0  0
    4.4625   -5.5542    0.0000 C   0  0  0  0  0  0  0  0  0  0  0  0
    3.8500   -5.9167    0.0000 C   0  0  0  0  0  0  0  0  0  0  0  0
  2  1  1  6
  3  1  2  0
  4  2  1  0
  5  2  1  0
  6  1  1  0
  7  4  1  0
  8  5  1  0
  9 11  1  0
 10  8  1  0
 10 11  1  1
  7 10  1  0
M  END
> <chembl_id>
CHEMBL877

> <chembl_pref_name>
TRANEXAMIC ACID

$$$$

     RDKit          2D

 13 11  0  0  0  0  0  0  0  0999 V2000
    1.5542   -3.5625    0.0000 Cl  0  0  0  0  0  0  0  0  0  0  0  0
   -0.2375   -1.4458    0.0000 C   0  0  0  0  0  0  0  0  0  0  0  0
    3.4500   -1.4333    0.0000 C   0  0  0  0  0  0  0  0  0  0  0  0
   -0.2417   -0.7333    0.0000 N   0  0  0  0  0  0  0  0  0  0  0  0
    3.4500   -0.7208    0.0000 O   0  0  0  0  0  0  0  0  0  0  0  0
    0.3750   -1.8000    0.0000 N   0  0  0  0  0  0  0  0  0  0  0  0
    2.8375   -1.7917    0.0000 C   0  0  0  0  0  0  0  0  0  0  0  0
   -0.8500   -1.8000    0.0000 N   0  0  0  0  0  0  0  0  0  0  0  0
    4.0625   -1.7917    0.0000 O   0  0  0  0  0  0  0  0  0  0  0  0
    2.8333   -2.5042    0.0000 N   0  0  0  0  0  0  0  0  0  0  0  0
    0.9875   -1.4417    0.0000 C   0  0  0  0  0  0  0  0  0  0  0  0
    2.2250   -1.4375    0.0000 C   0  0  0  0  0  0  0  0  0  0  0  0
    1.6042   -1.7917    0.0000 C   0  0  0  0  0  0  0  0  0  0  0  0
  3  7  1  0
  4  2  2  0
  5  3  2  0
  6  2  1  0
  7 12  1  0
  8  2  1  0
  9  3  1  0
  7 10  1  1
 11  6  1  0
 12 13  1  0
 13 11  1  0
M  END
> <chembl_id>
CHEMBL1200381

> <chembl_pref_name>
ARGININE HYDROCHLORIDE

$$$$

     RDKit          2D

 19 20  0  0  0  0  0  0  0  0999 V2000
    2.4157   -4.0325    0.0000 C   0  0  0  0  0  0  0  0  0  0  0  0
    1.7007   -3.6209    0.0000 C   0  0  0  0  0  0  0  0  0  0  0  0
    2.4157   -4.8473    0.0000 C   0  0  0  0  0  0  0  0  0  0  0  0
    3.1265   -3.6209    0.0000 C   0  0  0  0  0  0  0  0  0  0  0  0
    1.7007   -5.2671    0.0000 C   0  0  0  0  0  0  0  0  0  0  0  0
    3.1265   -5.2671    0.0000 C   0  0  0  0  0  0  0  0  0  0  0  0
    3.8374   -4.0325    0.0000 N   0  0  0  0  0  0  0  0  0  0  0  0
    1.8004   -2.8020    0.0000 O   0  0  0  0  0  0  0  0  0  0  0  0
    2.4157   -6.5017    0.0000 C   0  0  0  0  0  0  0  0  0  0  0  0
    3.1265   -6.0901    0.0000 C   0  0  0  0  0  0  0  0  0  0  0  0
    1.7007   -6.0901    0.0000 C   0  0  0  0  0  0  0  0  0  0  0  0
    2.4157   -7.3248    0.0000 O   0  0  0  0  0  0  0  0  0  0  0  0
    1.2891   -4.3359    0.0000 C   0  0  0  0  0  0  0  0  0  0  0  0
    0.9067   -3.8454    0.0000 C   0  0  0  0  0  0  0  0  0  0  0  0
    3.8374   -4.8473    0.0000 C   0  0  0  0  0  0  0  0  0  0  0  0
    4.5482   -3.6209    0.0000 C   0  0  0  0  0  0  0  0  0  0  0  0
    0.4910   -4.1073    0.0000 C   0  0  0  0  0  0  0  0  0  0  0  0
    0.1086   -3.6209    0.0000 C   0  0  0  0  0  0  0  0  0  0  0  0
   -0.3029   -4.3359    0.0000 C   0  0  0  0  0  0  0  0  0  0  0  0
  2  1  1  0
  3  1  1  0
  4  1  1  0
  5  3  1  0
  6  3  2  0
  7  4  1  0
  8  2  1  0
  9 10  2  0
 10  6  1  0
 11  5  2  0
 12  9  1  0
 13  2  1  0
 14  2  1  0
 15  7  1  0
 16  7  1  0
 17 13  1  0
 18 14  1  0
 19 18  1  0
  9 11  1  0
 17 19  1  0
M  END
> <chembl_id>
CHEMBL1118

> <chembl_pref_name>
DESVENLAFAXINE

$$$$

     RDKit          2D

 15 14  0  0  0  0  0  0  0  0999 V2000
    7.4542   -5.8417    0.0000 Na  0  0  0  0  0 15  0  0  0  0  0  0
    4.3542   -5.8042    0.0000 C   0  0  0  0  0  0  0  0  0  0  0  0
    4.9667   -5.4500    0.0000 N   0  0  0  0  0  0  0  0  0  0  0  0
    6.1917   -5.4375    0.0000 C   0  0  0  0  0  0  0  0  0  0  0  0
    3.7417   -5.4625    0.0000 C   0  0  0  0  0  0  0  0  0  0  0  0
    6.8167   -5.7875    0.0000 O   0  0  0  0  0  0  0  0  0  0  0  0
    4.3542   -6.5167    0.0000 O   0  0  0  0  0  0  0  0  0  0  0  0
    6.2000   -4.7167    0.0000 O   0  0  0  0  0  0  0  0  0  0  0  0
    5.5917   -5.7917    0.0000 C   0  0  0  0  0  0  0  0  0  0  0  0
    3.1292   -5.8167    0.0000 C   0  0  0  0  0  0  0  0  0  0  0  0
    3.7292   -4.7542    0.0000 C   0  0  0  0  0  0  0  0  0  0  0  0
    2.5000   -4.7625    0.0000 C   0  0  0  0  0  0  0  0  0  0  0  0
    1.8750   -4.4125    0.0000 N   0  0  0  0  0  0  0  0  0  0  0  0
    2.5042   -5.4667    0.0000 C   0  0  0  0  0  0  0  0  0  0  0  0
    3.1125   -4.4000    0.0000 C   0  0  0  0  0  0  0  0  0  0  0  0
  3  2  1  0
  4  9  1  0
  5  2  1  0
  6  4  1  0
  7  2  2  0
  8  4  2  0
  9  3  1  0
 10  5  2  0
 11  5  1  0
 12 15  1  0
 13 12  1  0
 14 10  1  0
 15 11  2  0
 12 14  2  0
M  CHG  2   1   1   6  -1
M  END
> <chembl_id>
CHEMBL1200365

> <chembl_pref_name>
AMINOHIPPURATE SODIUM

$$$$

     RDKit          2D

 21 21  0  0  0  0  0  0  0  0999 V2000
    9.6069   -3.7875    0.0000 C   0  0  0  0  0  0  0  0  0  0  0  0
    9.6057   -4.6148    0.0000 C   0  0  0  0  0  0  0  0  0  0  0  0
   10.3206   -5.0277    0.0000 C   0  0  0  0  0  0  0  0  0  0  0  0
   11.0370   -4.6144    0.0000 C   0  0  0  0  0  0  0  0  0  0  0  0
   11.0341   -3.7838    0.0000 C   0  0  0  0  0  0  0  0  0  0  0  0
   10.3188   -3.3747    0.0000 C   0  0  0  0  0  0  0  0  0  0  0  0
    8.8909   -5.0268    0.0000 C   0  0  0  0  0  0  0  0  0  0  0  0
    8.1768   -4.6137    0.0000 O   0  0  0  0  0  0  0  0  0  0  0  0
    8.8903   -5.8518    0.0000 O   0  0  0  0  0  0  0  0  0  0  0  0
    7.4620   -5.0256    0.0000 C   0  0  0  0  0  0  0  0  0  0  0  0
    6.7479   -4.6126    0.0000 C   0  0  0  0  0  0  0  0  0  0  0  0
    6.0331   -5.0245    0.0000 N   0  0  0  0  0  0  0  0  0  0  0  0
    5.3227   -4.6114    0.0000 C   0  0  0  0  0  0  0  0  0  0  0  0
    6.0324   -5.8495    0.0000 C   0  0  0  0  0  0  0  0  0  0  0  0
    5.3176   -6.2614    0.0000 C   0  0  0  0  0  0  0  0  0  0  0  0
    4.6070   -5.0217    0.0000 C   0  0  0  0  0  0  0  0  0  0  0  0
   11.7471   -3.3686    0.0000 N   0  0  0  0  0  0  0  0  0  0  0  0
    8.8923   -3.3751    0.0000 O   0  0  0  0  0  0  0  0  0  0  0  0
    8.1780   -3.7878    0.0000 C   0  0  0  0  0  0  0  0  0  0  0  0
    7.4634   -3.3755    0.0000 C   0  0  0  0  0  0  0  0  0  0  0  0
    6.7490   -3.7881    0.0000 C   0  0  0  0  0  0  0  0  0  0  0  0
 10 11  1  0
 11 12  1  0
  5  6  2  0
 12 13  1  0
  6  1  1  0
 12 14  1  0
  2  3  1  0
 14 15  1  0
  2  7  1  0
 13 16  1  0
  5 17  1  0
  7  8  1  0
  1 18  1  0
  3  4  2  0
 18 19  1  0
  7  9  2  0
 19 20  1  0
  1  2  2  0
 20 21  1  0
  8 10  1  0
  4  5  1  0
M  END
> <chembl_id>
CHEMBL1195

> <chembl_pref_name>
PROPOXYCAINE

$$$$

     RDKit          2D

 15 15  0  0  0  0  0  0  0  0999 V2000
    2.9917   -1.1292    0.0000 N   0  0  0  0  0  0  0  0  0  0  0  0
   -1.1833    1.2208    0.0000 C   0  0  0  0  0  0  0  0  0  0  0  0
   -2.2625    0.5833    0.0000 C   0  0  0  0  0  0  0  0  0  0  0  0
    4.0167   -0.5042    0.0000 O   0  0  0  0  0  0  0  0  0  0  0  0
    2.9917   -2.3292    0.0000 O   0  0  0  0  0  0  0  0  0  0  0  0
   -1.1833    2.4125    0.0000 O   0  0  0  0  0  0  0  0  0  0  0  0
   -3.2958   -1.2167    0.0000 N   0  0  0  0  0  0  0  0  0  0  0  0
    1.9500   -0.5375    0.0000 O   0  0  0  0  0  0  0  0  0  0  0  0
   -0.1708    0.6625    0.0000 N   0  0  0  0  0  0  0  0  0  0  0  0
   -2.2625   -0.6250    0.0000 C   0  0  0  0  0  0  0  0  0  0  0  0
    0.9292   -1.1375    0.0000 C   0  0  0  0  0  0  0  0  0  0  0  0
   -3.2833    1.1833    0.0000 C   0  0  0  0  0  0  0  0  0  0  0  0
   -0.1500   -0.5167    0.0000 C   0  0  0  0  0  0  0  0  0  0  0  0
   -4.3458   -0.6042    0.0000 C   0  0  0  0  0  0  0  0  0  0  0  0
   -4.3458    0.6250    0.0000 C   0  0  0  0  0  0  0  0  0  0  0  0
  2  9  1  0
  3  2  1  0
  4  1  1  0
  5  1  2  0
  6  2  2  0
  7 10  1  0
  8  1  1  0
  9 13  1  0
 10  3  2  0
 11  8  1  0
 12  3  1  0
 13 11  1  0
 14 15  1  0
 15 12  2  0
  7 14  2  0
M  CHG  2   1   1   4  -1
M  END
> <chembl_id>
CHEMBL284906

> <chembl_pref_name>
NICORANDIL

$$$$

     RDKit          2D

 21 21  0  0  0  0  0  0  0  0999 V2000
   -2.9000    0.0208    0.0000 C   0  0  0  0  0  0  0  0  0  0  0  0
   -2.1458    0.4500    0.0000 C   0  0  0  0  0  0  0  0  0  0  0  0
   -2.8958   -0.8167    0.0000 C   0  0  0  0  0  0  0  0  0  0  0  0
   -3.6125    0.4458    0.0000 C   0  0  0  0  0  0  0  0  0  0  0  0
   -1.4458    0.0125    0.0000 C   0  0  0  0  0  0  0  0  0  0  0  0
    0.7167    0.4208    0.0000 C   0  0  0  0  0  0  0  0  0  0  0  0
   -0.7208    0.4250    0.0000 C   0  0  0  0  0  0  0  0  0  0  0  0
    2.1292    0.3750    0.0000 C   0  0  0  0  0  0  0  0  0  0  0  0
   -0.0250   -0.0042    0.0000 C   0  0  0  0  0  0  0  0  0  0  0  0
    1.4167   -0.0417    0.0000 C   0  0  0  0  0  0  0  0  0  0  0  0
    2.8542   -0.0542    0.0000 C   0  0  0  0  0  0  0  0  0  0  0  0
   -3.6333   -1.2292    0.0000 C   0  0  0  0  0  0  0  0  0  0  0  0
   -4.3333    0.0208    0.0000 C   0  0  0  0  0  0  0  0  0  0  0  0
    4.2792   -0.0917    0.0000 O   0  0  0  0  0  0  0  0  0  0  0  0
   -2.1833   -1.2542    0.0000 C   0  0  0  0  0  0  0  0  0  0  0  0
   -3.2833    1.2083    0.0000 C   0  0  0  0  0  0  0  0  0  0  0  0
   -3.8625    1.2250    0.0000 C   0  0  0  0  0  0  0  0  0  0  0  0
   -4.3458   -0.8167    0.0000 C   0  0  0  0  0  0  0  0  0  0  0  0
    3.5792    0.3458    0.0000 C   0  0  0  0  0  0  0  0  0  0  0  0
   -0.7208    1.2583    0.0000 C   0  0  0  0  0  0  0  0  0  0  0  0
    2.1625    1.2000    0.0000 C   0  0  0  0  0  0  0  0  0  0  0  0
  2  1  1  0
  3  1  2  0
  4  1  1  0
  5  2  2  0
  6  9  1  0
  7  5  1  0
  8 10  1  0
  9  7  2  0
 10  6  2  0
 11  8  2  0
 12  3  1  0
 13  4  1  0
 14 19  1  0
 15  3  1  0
 16  4  1  0
 17  4  1  0
 18 13  1  0
 19 11  1  0
 20  7  1  0
 21  8  1  0
 12 18  1  0
M  END
> <chembl_id>
CHEMBL986

> <chembl_pref_name>
RETINOL

$$$$

     RDKit          2D

 10  9  0  0  0  0  0  0  0  0999 V2000
    0.2042   -2.7250    0.0000 C   0  0  0  0  0  0  0  0  0  0  0  0
    0.8167   -3.0667    0.0000 N   0  0  0  0  0  0  0  0  0  0  0  0
    2.0417   -3.0667    0.0000 C   0  0  0  0  0  0  0  0  0  0  0  0
    0.2000   -2.0125    0.0000 O   0  0  0  0  0  0  0  0  0  0  0  0
    2.0542   -3.7792    0.0000 O   0  0  0  0  0  0  0  0  0  0  0  0
   -0.4083   -3.0750    0.0000 C   0  0  0  0  0  0  0  0  0  0  0  0
    1.4292   -2.7167    0.0000 C   0  0  0  0  0  0  0  0  0  0  0  0
   -1.0333   -2.7250    0.0000 S   0  0  0  0  0  0  0  0  0  0  0  0
    2.6500   -2.7042    0.0000 O   0  0  0  0  0  0  0  0  0  0  0  0
   -0.4083   -3.7917    0.0000 C   0  0  0  0  0  0  0  0  0  0  0  0
  2  1  1  0
  3  7  1  0
  4  1  2  0
  5  3  2  0
  6  1  1  0
  7  2  1  0
  8  6  1  0
  9  3  1  0
 10  6  1  0
M  END
> <chembl_id>
CHEMBL1314

> <chembl_pref_name>
TIOPRONIN

$$$$

     RDKit          2D

 20 21  0  0  0  0  0  0  0  0999 V2000
   -0.4250   -4.0000    0.0000 N   0  0  0  0  0  0  0  0  0  0  0  0
    0.1792   -4.3542    0.0000 C   0  0  0  0  0  0  0  0  0  0  0  0
    0.8042   -4.0042    0.0000 C   0  0  0  0  0  0  0  0  0  0  0  0
    1.4042   -4.3667    0.0000 C   0  0  0  0  0  0  0  0  0  0  0  0
    0.1792   -5.0667    0.0000 C   0  0  0  0  0  0  0  0  0  0  0  0
    2.0292   -4.0042    0.0000 N   0  0  0  0  0  0  0  0  0  0  0  0
    1.4042   -5.0750    0.0000 C   0  0  0  0  0  0  0  0  0  0  0  0
    0.7917   -5.4167    0.0000 C   0  0  0  0  0  0  0  0  0  0  0  0
   -1.0333   -4.3542    0.0000 O   0  0  0  0  0  0  0  0  0  0  0  0
   -0.4208   -3.2917    0.0000 O   0  0  0  0  0  0  0  0  0  0  0  0
    2.0167   -5.4375    0.0000 C   0  0  0  0  0  0  0  0  0  0  0  0
    3.8500   -4.4042    0.0000 N   0  0  0  0  0  0  0  0  0  0  0  0
    2.6375   -4.3667    0.0000 C   0  0  0  0  0  0  0  0  0  0  0  0
    3.2667   -4.0250    0.0000 C   0  0  0  0  0  0  0  0  0  0  0  0
    2.6375   -5.0792    0.0000 C   0  0  0  0  0  0  0  0  0  0  0  0
   -0.4250   -5.4292    0.0000 C   0  0  0  0  0  0  0  0  0  0  0  0
   -1.0458   -5.0792    0.0000 O   0  0  0  0  0  0  0  0  0  0  0  0
    4.4625   -4.0542    0.0000 C   0  0  0  0  0  0  0  0  0  0  0  0
    5.0667   -4.4167    0.0000 C   0  0  0  0  0  0  0  0  0  0  0  0
    4.4667   -3.3542    0.0000 C   0  0  0  0  0  0  0  0  0  0  0  0
  2  1  1  0
  3  2  2  0
  4  3  1  0
  5  2  1  0
  6  4  1  0
  7  8  1  0
  8  5  2  0
  9  1  1  0
 10  1  2  0
 11  7  1  0
 12 14  1  0
 13  6  1  0
 14 13  1  0
 15 11  1  0
 16  5  1  0
 17 16  1  0
 18 12  1  0
 19 18  1  0
 20 18  1  0
  7  4  2  0
 15 13  1  0
M  CHG  2   1   1   9  -1
M  END
> <chembl_id>
CHEMBL847

> <chembl_pref_name>
OXAMNIQUINE

$$$$

     RDKit          2D

 12 11  0  0  0  0  0  0  0  0999 V2000
    3.1167   -8.1542    0.0000 Cl  0  0  0  0  0  0  0  0  0  0  0  0
    4.7167   -7.0625    0.0000 C   0  0  0  0  0  0  0  0  0  0  0  0
    5.3292   -7.4167    0.0000 C   0  0  0  0  0  0  0  0  0  0  0  0
    4.1042   -7.4167    0.0000 C   0  0  0  0  0  0  0  0  0  0  0  0
    3.4875   -7.0542    0.0000 N   0  0  0  0  0  0  0  0  0  0  0  0
    4.7167   -6.3542    0.0000 O   0  0  0  0  0  0  0  0  0  0  0  0
    5.9417   -7.0667    0.0000 C   0  0  0  0  0  0  0  0  0  0  0  0
    5.3292   -8.1292    0.0000 C   0  0  0  0  0  0  0  0  0  0  0  0
    4.1042   -8.1292    0.0000 C   0  0  0  0  0  0  0  0  0  0  0  0
    5.9500   -8.4792    0.0000 C   0  0  0  0  0  0  0  0  0  0  0  0
    6.5625   -7.4250    0.0000 C   0  0  0  0  0  0  0  0  0  0  0  0
    6.5667   -8.1292    0.0000 C   0  0  0  0  0  0  0  0  0  0  0  0
  3  2  1  0
  4  2  1  0
  5  4  1  0
  6  2  1  0
  7  3  1  0
  8  3  2  0
  9  4  1  0
 10  8  1  0
 11  7  2  0
 12 11  1  0
 12 10  2  0
M  END
> <chembl_id>
CHEMBL1200695

> <chembl_pref_name>
PHENYLPROPANOLAMINE HYDROCHLORIDE

$$$$

     RDKit          2D

 19 20  0  0  0  0  0  0  0  0999 V2000
    2.8042   -5.6000    0.0000 S   0  0  0  0  0  0  0  0  0  0  0  0
    3.4167   -5.2417    0.0000 N   0  0  0  0  0  0  0  0  0  0  0  0
    4.0292   -5.5958    0.0000 C   0  0  0  0  0  0  0  0  0  0  0  0
    2.1875   -5.2458    0.0000 C   0  0  0  0  0  0  0  0  0  0  0  0
    3.1542   -6.2125    0.0000 O   0  0  0  0  0  0  0  0  0  0  0  0
    2.4417   -6.2125    0.0000 O   0  0  0  0  0  0  0  0  0  0  0  0
    4.0333   -6.3042    0.0000 O   0  0  0  0  0  0  0  0  0  0  0  0
    4.6417   -5.2375    0.0000 C   0  0  0  0  0  0  0  0  0  0  0  0
    2.1875   -4.5333    0.0000 C   0  0  0  0  0  0  0  0  0  0  0  0
    1.5750   -5.6000    0.0000 C   0  0  0  0  0  0  0  0  0  0  0  0
    0.9625   -4.5375    0.0000 C   0  0  0  0  0  0  0  0  0  0  0  0
    0.3500   -4.1792    0.0000 N   0  0  0  0  0  0  0  0  0  0  0  0
    0.9625   -5.2458    0.0000 C   0  0  0  0  0  0  0  0  0  0  0  0
    1.5750   -4.1792    0.0000 C   0  0  0  0  0  0  0  0  0  0  0  0
    5.2542   -5.5917    0.0000 C   0  0  0  0  0  0  0  0  0  0  0  0
    4.6375   -4.5333    0.0000 C   0  0  0  0  0  0  0  0  0  0  0  0
    5.2458   -4.1750    0.0000 C   0  0  0  0  0  0  0  0  0  0  0  0
    5.8667   -5.2375    0.0000 C   0  0  0  0  0  0  0  0  0  0  0  0
    5.8667   -4.5250    0.0000 C   0  0  0  0  0  0  0  0  0  0  0  0
  2  1  1  0
  3  2  1  0
  4  1  1  0
  5  1  2  0
  6  1  2  0
  7  3  2  0
  8  3  1  0
  9  4  1  0
 10  4  2  0
 11 13  2  0
 12 11  1  0
 13 10  1  0
 14  9  2  0
 15  8  2  0
 16  8  1  0
 17 16  2  0
 18 15  1  0
 19 17  1  0
 11 14  1  0
 19 18  2  0
M  END
> <chembl_id>
CHEMBL1243

> <chembl_pref_name>
SULFABENZAMIDE

$$$$

     RDKit          2D

 19 19  0  0  0  0  0  0  0  0999 V2000
    4.2792    1.3708    0.0000 N   0  0  0  0  0  0  0  0  0  0  0  0
    2.7917   -0.4375    0.0000 O   0  0  0  0  0  0  0  0  0  0  0  0
    3.9667    0.5375    0.0000 C   0  0  0  0  0  0  0  0  0  0  0  0
    3.0917    0.3875    0.0000 C   0  0  0  0  0  0  0  0  0  0  0  0
   -2.6458    0.6708    0.0000 N   0  0  0  0  0  0  0  0  0  0  0  0
   -1.8833    0.2208    0.0000 C   0  0  0  0  0  0  0  0  0  0  0  0
   -3.4333    0.2000    0.0000 C   0  0  0  0  0  0  0  0  0  0  0  0
   -1.8625   -0.6667    0.0000 C   0  0  0  0  0  0  0  0  0  0  0  0
   -3.4083   -0.6792    0.0000 C   0  0  0  0  0  0  0  0  0  0  0  0
   -2.6083   -1.1292    0.0000 C   0  0  0  0  0  0  0  0  0  0  0  0
   -4.2333    0.5958    0.0000 O   0  0  0  0  0  0  0  0  0  0  0  0
   -1.1000    0.6708    0.0000 C   0  0  0  0  0  0  0  0  0  0  0  0
   -2.6333    1.5625    0.0000 O   0  0  0  0  0  0  0  0  0  0  0  0
   -2.5625   -2.0167    0.0000 C   0  0  0  0  0  0  0  0  0  0  0  0
   -0.3208    0.2208    0.0000 C   0  0  0  0  0  0  0  0  0  0  0  0
   -1.1000    1.5750    0.0000 C   0  0  0  0  0  0  0  0  0  0  0  0
   -0.3208    2.0208    0.0000 C   0  0  0  0  0  0  0  0  0  0  0  0
    0.4667    0.6708    0.0000 C   0  0  0  0  0  0  0  0  0  0  0  0
    0.4792    1.5750    0.0000 C   0  0  0  0  0  0  0  0  0  0  0  0
  2  4  1  0
  3  1  1  0
  4  3  1  0
  6  5  1  0
  7  5  1  0
  8  6  2  0
  9  7  1  0
 10  9  2  0
 11  7  2  0
 12  6  1  0
 13  5  1  0
 14 10  1  0
 15 12  1  0
 16 12  1  0
 17 16  1  0
 18 15  1  0
 19 17  1  0
  8 10  1  0
 18 19  1  0
M  END
> <chembl_id>
CHEMBL242580

> <chembl_pref_name>
CICLOPIROX OLAMINE

$$$$

     RDKit          2D

 21 22  0  0  0  0  0  0  0  0999 V2000
    5.9917   -6.9917    0.0000 N   0  0  0  0  0  0  0  0  0  0  0  0
    6.6167   -6.6375    0.0000 C   0  0  0  0  0  0  0  0  0  0  0  0
    7.2292   -6.9917    0.0000 N   0  0  0  0  0  0  0  0  0  0  0  0
    5.3792   -6.6375    0.0000 C   0  0  0  0  0  0  0  0  0  0  0  0
    5.9917   -7.7042    0.0000 C   0  0  0  0  0  0  0  0  0  0  0  0
    4.7667   -6.9875    0.0000 C   0  0  0  0  0  0  0  0  0  0  0  0
    5.3792   -8.7667    0.0000 N   0  0  0  0  0  0  0  0  0  0  0  0
    5.3875   -8.0542    0.0000 C   0  0  0  0  0  0  0  0  0  0  0  0
    3.5292   -7.6917    0.0000 C   0  0  0  0  0  0  0  0  0  0  0  0
    4.7667   -7.7000    0.0000 C   0  0  0  0  0  0  0  0  0  0  0  0
    4.1542   -6.6417    0.0000 C   0  0  0  0  0  0  0  0  0  0  0  0
    3.5375   -6.9917    0.0000 C   0  0  0  0  0  0  0  0  0  0  0  0
    4.1542   -8.0542    0.0000 C   0  0  0  0  0  0  0  0  0  0  0  0
    2.9125   -8.0542    0.0000 O   0  0  0  0  0  0  0  0  0  0  0  0
    6.6167   -5.9375    0.0000 C   0  0  0  0  0  0  0  0  0  0  0  0
    7.8500   -6.6375    0.0000 C   0  0  0  0  0  0  0  0  0  0  0  0
    4.7667   -9.1250    0.0000 C   0  0  0  0  0  0  0  0  0  0  0  0
    6.0000   -9.1292    0.0000 C   0  0  0  0  0  0  0  0  0  0  0  0
    2.3000   -7.7042    0.0000 C   0  0  0  0  0  0  0  0  0  0  0  0
    7.2375   -5.5750    0.0000 C   0  0  0  0  0  0  0  0  0  0  0  0
    7.8500   -5.9250    0.0000 C   0  0  0  0  0  0  0  0  0  0  0  0
  2  1  1  0
  3  2  2  0
  4  1  1  0
  5  1  1  0
  6  4  1  0
  7  8  1  0
  8  5  1  0
  9 12  2  0
 10  6  1  0
 11  6  2  0
 12 11  1  0
 13 10  2  0
 14  9  1  0
 15  2  1  0
 16  3  1  0
 17  7  1  0
 18  7  1  0
 19 14  1  0
 20 15  2  0
 21 16  2  0
  9 13  1  0
 20 21  1  0
M  END
> <chembl_id>
CHEMBL511

> <chembl_pref_name>
PYRILAMINE

$$$$

     RDKit          2D

 14 14  0  0  0  0  0  0  0  0999 V2000
    7.5065   17.2477    0.0000 N   0  0  0  0  0  0  0  0  0  0  0  0
    7.5065   16.4227    0.0000 C   0  0  0  0  0  0  0  0  0  0  0  0
    8.2210   16.0102    0.0000 C   0  0  0  0  0  0  0  0  0  0  0  0
    8.9354   16.4227    0.0000 O   0  0  0  0  0  0  0  0  0  0  0  0
    6.7920   16.0102    0.0000 C   0  0  0  0  0  0  0  0  0  0  0  0
    6.0775   16.4227    0.0000 C   0  0  0  0  0  0  0  0  0  0  0  0
    5.3631   16.0102    0.0000 C   0  0  0  0  0  0  0  0  0  0  0  0
    6.0775   17.2477    0.0000 C   0  0  0  0  0  0  0  0  0  0  0  0
    4.6486   16.4227    0.0000 C   0  0  0  0  0  0  0  0  0  0  0  0
    5.3631   17.6602    0.0000 C   0  0  0  0  0  0  0  0  0  0  0  0
    4.6486   17.2477    0.0000 C   0  0  0  0  0  0  0  0  0  0  0  0
    3.9341   17.6602    0.0000 O   0  0  0  0  0  0  0  0  0  0  0  0
    5.3631   18.4852    0.0000 O   0  0  0  0  0  0  0  0  0  0  0  0
    8.2210   15.1852    0.0000 O   0  0  0  0  0  0  0  0  0  0  0  0
  2  1  1  6
  3  2  1  0
  2  5  1  0
  3  4  2  0
  3 14  1  0
  5  6  1  0
  7  6  1  0
  8  6  2  0
  7  9  2  0
  8 10  1  0
  9 11  1  0
 10 11  2  0
 10 13  1  0
 11 12  1  0
M  END
> <chembl_id>
CHEMBL1009

> <chembl_pref_name>
LEVODOPA

$$$$

     RDKit          2D

 11 10  0  0  1  0  0  0  0  0999 V2000
    2.8167    0.5083    0.0000 C   0  0  0  0  0  0  0  0  0  0  0  0
    1.6125   -0.1667    0.0000 C   0  0  0  0  0  0  0  0  0  0  0  0
   -3.1333   -0.1750    0.0000 C   0  0  0  0  0  0  0  0  0  0  0  0
    2.8292    1.8958    0.0000 O   0  0  0  0  0  0  0  0  0  0  0  0
   -4.3125    0.5208    0.0000 O   0  0  0  0  0  0  0  0  0  0  0  0
   -0.7708   -0.3292    0.0000 S   0  0  0  0  0  0  0  0  0  0  0  0
    1.5917   -1.5500    0.0000 N   0  0  0  0  0  0  0  0  0  0  0  0
    4.0000   -0.1792    0.0000 O   0  0  0  0  0  0  0  0  0  0  0  0
   -3.1583   -1.5417    0.0000 O   0  0  0  0  0  0  0  0  0  0  0  0
    0.3875    0.5333    0.0000 C   0  0  0  0  0  0  0  0  0  0  0  0
   -1.9083    0.5083    0.0000 C   0  0  0  0  0  0  0  0  0  0  0  0
  2  1  1  0
  3 11  1  0
  4  1  2  0
  5  3  2  0
  6 10  1  0
  2  7  1  1
  8  1  1  0
  9  3  1  0
 10  2  1  0
 11  6  1  0
M  END
> <chembl_id>
CHEMBL396416

> <chembl_pref_name>
CARBOCYSTEINE

$$$$

     RDKit          2D

 13  9  0  0  0  0  0  0  0  0999 V2000
    4.6042   -8.2500    0.0000 Al  0  0  0  0  0 15  0  0  0  0  0  0
    6.0167   -8.2292    0.0000 C   0  0  0  0  0  0  0  0  0  0  0  0
    5.4042   -7.8625    0.0000 O   0  0  0  0  0  0  0  0  0  0  0  0
    6.0000   -8.9417    0.0000 O   0  0  0  0  0  0  0  0  0  0  0  0
    6.6375   -7.8875    0.0000 C   0  0  0  0  0  0  0  0  0  0  0  0
    4.1542   -7.1000    0.0000 C   0  0  0  0  0  0  0  0  0  0  0  0
    4.1375   -7.8042    0.0000 O   0  0  0  0  0  0  0  0  0  0  0  0
    4.7792   -6.7542    0.0000 O   0  0  0  0  0  0  0  0  0  0  0  0
    3.5500   -6.7292    0.0000 C   0  0  0  0  0  0  0  0  0  0  0  0
    4.1042   -9.2750    0.0000 C   0  0  0  0  0  0  0  0  0  0  0  0
    4.7292   -8.9292    0.0000 O   0  0  0  0  0  0  0  0  0  0  0  0
    3.5042   -8.9125    0.0000 O   0  0  0  0  0  0  0  0  0  0  0  0
    4.0875   -9.9875    0.0000 C   0  0  0  0  0  0  0  0  0  0  0  0
  3  2  1  0
  4  2  2  0
  5  2  1  0
  7  6  1  0
  8  6  2  0
  9  6  1  0
 11 10  1  0
 12 10  2  0
 13 10  1  0
M  CHG  4   1   3   3  -1   7  -1  11  -1
M  END
> <chembl_id>
CHEMBL1201015

> <chembl_pref_name>
ALUMINUM ACETATE

$$$$

     RDKit          2D

 16 16  0  0  0  0  0  0  0  0999 V2000
    0.4750    0.2625    0.0000 C   0  0  0  0  0  0  0  0  0  0  0  0
   -0.1375    0.6208    0.0000 N   0  0  0  0  0  0  0  0  0  0  0  0
   -0.7583    0.2625    0.0000 C   0  0  0  0  0  0  0  0  0  0  0  0
    0.4750   -0.4500    0.0000 O   0  0  0  0  0  0  0  0  0  0  0  0
    1.0917    0.6125    0.0000 C   0  0  0  0  0  0  0  0  0  0  0  0
   -1.3708    0.6250    0.0000 C   0  0  0  0  0  0  0  0  0  0  0  0
    1.7042    0.2500    0.0000 N   0  0  0  0  0  0  0  0  0  0  0  0
   -0.7583   -0.4500    0.0000 C   0  0  0  0  0  0  0  0  0  0  0  0
   -1.3625    1.3375    0.0000 C   0  0  0  0  0  0  0  0  0  0  0  0
   -1.9750    0.2750    0.0000 C   0  0  0  0  0  0  0  0  0  0  0  0
    2.3375    0.5958    0.0000 C   0  0  0  0  0  0  0  0  0  0  0  0
    1.0875    1.3125    0.0000 C   0  0  0  0  0  0  0  0  0  0  0  0
    2.9417    0.2250    0.0000 C   0  0  0  0  0  0  0  0  0  0  0  0
   -1.3708   -0.8000    0.0000 C   0  0  0  0  0  0  0  0  0  0  0  0
    3.5667    0.5625    0.0000 C   0  0  0  0  0  0  0  0  0  0  0  0
   -1.9750   -0.4375    0.0000 C   0  0  0  0  0  0  0  0  0  0  0  0
  2  1  1  0
  3  2  1  0
  4  1  2  0
  5  1  1  0
  6  3  2  0
  7  5  1  0
  8  3  1  0
  9  6  1  0
 10  6  1  0
 11  7  1  0
 12  5  1  0
 13 11  1  0
 14  8  2  0
 15 13  1  0
 16 14  1  0
 16 10  2  0
M  END
> <chembl_id>
CHEMBL1194

> <chembl_pref_name>
PRILOCAINE

$$$$

     RDKit          2D

 17 18  0  0  0  0  0  0  0  0999 V2000
    4.5875   -5.8792    0.0000 C   0  0  0  0  0  0  0  0  0  0  0  0
    5.1917   -6.2375    0.0000 C   0  0  0  0  0  0  0  0  0  0  0  0
    3.9792   -6.2292    0.0000 C   0  0  0  0  0  0  0  0  0  0  0  0
    5.8167   -5.8792    0.0000 O   0  0  0  0  0  0  0  0  0  0  0  0
    4.5917   -5.1667    0.0000 C   0  0  0  0  0  0  0  0  0  0  0  0
    3.3542   -5.8750    0.0000 C   0  0  0  0  0  0  0  0  0  0  0  0
    5.2042   -6.9417    0.0000 O   0  0  0  0  0  0  0  0  0  0  0  0
    3.3542   -5.1667    0.0000 C   0  0  0  0  0  0  0  0  0  0  0  0
    3.9750   -6.9417    0.0000 O   0  0  0  0  0  0  0  0  0  0  0  0
    3.9750   -4.8125    0.0000 C   0  0  0  0  0  0  0  0  0  0  0  0
    6.4375   -6.2292    0.0000 C   0  0  0  0  0  0  0  0  0  0  0  0
    2.7292   -4.8167    0.0000 N   0  0  0  0  0  0  0  0  0  0  0  0
    6.4417   -6.9292    0.0000 C   0  0  0  0  0  0  0  0  0  0  0  0
    7.0500   -5.8792    0.0000 C   0  0  0  0  0  0  0  0  0  0  0  0
    7.6667   -6.2292    0.0000 C   0  0  0  0  0  0  0  0  0  0  0  0
    7.0542   -7.2917    0.0000 C   0  0  0  0  0  0  0  0  0  0  0  0
    7.6667   -6.9417    0.0000 C   0  0  0  0  0  0  0  0  0  0  0  0
  2  1  1  0
  3  1  2  0
  4  2  1  0
  5  1  1  0
  6  3  1  0
  7  2  2  0
  8 10  1  0
  9  3  1  0
 10  5  2  0
 11  4  1  0
 12  8  1  0
 13 11  2  0
 14 11  1  0
 15 14  2  0
 16 13  1  0
 17 15  1  0
  8  6  2  0
 17 16  2  0
M  END
> <chembl_id>
CHEMBL1200868

> <chembl_pref_name>
PHENYL AMINOSALICYLATE

$$$$

     RDKit          2D

 14 14  0  0  0  0  0  0  0  0999 V2000
    4.7042   -6.3250    0.0000 C   0  0  0  0  0  0  0  0  0  0  0  0
    5.3042   -6.6792    0.0000 N   0  0  0  0  0  0  0  0  0  0  0  0
    6.5375   -7.4042    0.0000 N   0  0  0  0  0  0  0  0  0  0  0  0
    4.0917   -6.6792    0.0000 N   0  0  0  0  0  0  0  0  0  0  0  0
    4.7167   -5.6167    0.0000 O   0  0  0  0  0  0  0  0  0  0  0  0
    5.9292   -6.3292    0.0000 C   0  0  0  0  0  0  0  0  0  0  0  0
    5.3167   -7.3917    0.0000 C   0  0  0  0  0  0  0  0  0  0  0  0
    5.9250   -7.7542    0.0000 C   0  0  0  0  0  0  0  0  0  0  0  0
    6.5500   -6.6917    0.0000 C   0  0  0  0  0  0  0  0  0  0  0  0
    7.1542   -7.7667    0.0000 C   0  0  0  0  0  0  0  0  0  0  0  0
    3.4750   -6.3167    0.0000 C   0  0  0  0  0  0  0  0  0  0  0  0
    4.0875   -7.3917    0.0000 C   0  0  0  0  0  0  0  0  0  0  0  0
    3.4667   -7.7417    0.0000 C   0  0  0  0  0  0  0  0  0  0  0  0
    2.8542   -6.6667    0.0000 C   0  0  0  0  0  0  0  0  0  0  0  0
  2  1  1  0
  3  8  1  0
  4  1  1  0
  5  1  2  0
  6  2  1  0
  7  2  1  0
  8  7  1  0
  9  6  1  0
 10  3  1  0
 11  4  1  0
 12  4  1  0
 13 12  1  0
 14 11  1  0
  3  9  1  0
M  END
> <chembl_id>
CHEMBL684

> <chembl_pref_name>
DIETHYLCARBAMAZINE

$$$$

     RDKit          2D

 10 10  0  0  0  0  0  0  0  0999 V2000
   -0.0061    0.7810    0.0000 C   0  0  0  0  0  0  0  0  0  0  0  0
   -0.0061   -0.0440    0.0000 C   0  0  0  0  0  0  0  0  0  0  0  0
   -0.0061   -1.6940    0.0000 N   0  0  0  0  0  0  0  0  0  0  0  0
   -0.7206    1.1935    0.0000 O   0  0  0  0  0  0  0  0  0  0  0  0
   -0.7206   -0.4565    0.0000 C   0  0  0  0  0  0  0  0  0  0  0  0
    0.7083    1.1935    0.0000 N   0  0  0  0  0  0  0  0  0  0  0  0
   -0.7206   -1.2815    0.0000 C   0  0  0  0  0  0  0  0  0  0  0  0
    0.7083    2.0185    0.0000 N   0  0  0  0  0  0  0  0  0  0  0  0
    0.7083   -1.2815    0.0000 C   0  0  0  0  0  0  0  0  0  0  0  0
    0.7083   -0.4565    0.0000 C   0  0  0  0  0  0  0  0  0  0  0  0
  1  4  2  0
  1  2  1  0
  2 10  1  0
  9  3  1  0
  2  5  2  0
  1  6  1  0
  6  8  1  0
  7  3  2  0
  5  7  1  0
  9 10  2  0
M  END
> <chembl_id>
CHEMBL64

> <chembl_pref_name>
ISONIAZID

$$$$

     RDKit          2D

  8  8  0  0  0  0  0  0  0  0999 V2000
    4.5417   -8.4042    0.0000 C   0  0  0  0  0  0  0  0  0  0  0  0
    5.7667   -7.7000    0.0000 C   0  0  0  0  0  0  0  0  0  0  0  0
    5.1500   -8.7583    0.0000 C   0  0  0  0  0  0  0  0  0  0  0  0
    5.1583   -7.3417    0.0000 C   0  0  0  0  0  0  0  0  0  0  0  0
    5.7667   -8.4042    0.0000 C   0  0  0  0  0  0  0  0  0  0  0  0
    4.5417   -7.6958    0.0000 C   0  0  0  0  0  0  0  0  0  0  0  0
    3.9250   -8.7583    0.0000 O   0  0  0  0  0  0  0  0  0  0  0  0
    6.3833   -7.3417    0.0000 O   0  0  0  0  0  0  0  0  0  0  0  0
  2  4  1  0
  3  1  2  0
  4  6  2  0
  5  3  1  0
  6  1  1  0
  7  1  1  0
  8  2  1  0
  5  2  2  0
M  END
> <chembl_id>
CHEMBL537

> <chembl_pref_name>
HYDROQUINONE

$$$$

     RDKit          2D

 15 15  0  0  0  0  0  0  0  0999 V2000
    0.5750    0.5583    0.0000 C   0  0  0  0  0  0  0  0  0  0  0  0
   -3.1750    0.6000    0.0000 C   0  0  0  0  0  0  0  0  0  0  0  0
    0.5875   -0.5000    0.0000 C   0  0  0  0  0  0  0  0  0  0  0  0
   -0.3375    1.0958    0.0000 C   0  0  0  0  0  0  0  0  0  0  0  0
   -1.2833    0.5625    0.0000 C   0  0  0  0  0  0  0  0  0  0  0  0
   -3.1625   -0.5000    0.0000 O   0  0  0  0  0  0  0  0  0  0  0  0
   -2.2125    1.1208    0.0000 C   0  0  0  0  0  0  0  0  0  0  0  0
   -0.3458   -1.0417    0.0000 C   0  0  0  0  0  0  0  0  0  0  0  0
    3.4000   -1.0667    0.0000 C   0  0  0  0  0  0  0  0  0  0  0  0
    4.3417   -0.5375    0.0000 C   0  0  0  0  0  0  0  0  0  0  0  0
    1.5250    1.0958    0.0000 Cl  0  0  0  0  0  0  0  0  0  0  0  0
   -1.2833   -0.5375    0.0000 C   0  0  0  0  0  0  0  0  0  0  0  0
   -4.1458    1.1458    0.0000 O   0  0  0  0  0  0  0  0  0  0  0  0
    1.5375   -1.0417    0.0000 O   0  0  0  0  0  0  0  0  0  0  0  0
    2.4625   -0.5250    0.0000 C   0  0  0  0  0  0  0  0  0  0  0  0
  2  7  1  0
  3  1  1  0
  4  1  2  0
  5  4  1  0
  6  2  2  0
  7  5  1  0
  8  3  2  0
  9 15  1  0
 10  9  2  0
 11  1  1  0
 12  5  2  0
 13  2  1  0
 14  3  1  0
 15 14  1  0
  8 12  1  0
M  END
> <chembl_id>
CHEMBL94081

> <chembl_pref_name>
ALCLOFENAC

$$$$

     RDKit          2D

 19 19  0  0  0  0  0  0  0  0999 V2000
    7.3792   -3.1542    0.0000 C   0  0  0  0  0  0  0  0  0  0  0  0
    7.3792   -3.8625    0.0000 O   0  0  0  0  0  0  0  0  0  0  0  0
    1.8417   -4.2417    0.0000 N   0  0  0  0  0  0  0  0  0  0  0  0
    6.7667   -2.8042    0.0000 C   0  0  0  0  0  0  0  0  0  0  0  0
    4.3000   -4.2250    0.0000 O   0  0  0  0  0  0  0  0  0  0  0  0
    8.0000   -2.8000    0.0000 N   0  0  0  0  0  0  0  0  0  0  0  0
    3.0667   -4.2292    0.0000 C   0  0  0  0  0  0  0  0  0  0  0  0
    4.9167   -3.8750    0.0000 C   0  0  0  0  0  0  0  0  0  0  0  0
    2.4542   -3.8875    0.0000 C   0  0  0  0  0  0  0  0  0  0  0  0
    6.1542   -3.1542    0.0000 C   0  0  0  0  0  0  0  0  0  0  0  0
    3.6917   -3.8667    0.0000 C   0  0  0  0  0  0  0  0  0  0  0  0
    5.5292   -4.2292    0.0000 C   0  0  0  0  0  0  0  0  0  0  0  0
    4.9167   -3.1667    0.0000 C   0  0  0  0  0  0  0  0  0  0  0  0
    5.5375   -2.8042    0.0000 C   0  0  0  0  0  0  0  0  0  0  0  0
    6.1500   -3.8667    0.0000 C   0  0  0  0  0  0  0  0  0  0  0  0
    3.0750   -4.9417    0.0000 O   0  0  0  0  0  0  0  0  0  0  0  0
    1.2250   -3.9000    0.0000 C   0  0  0  0  0  0  0  0  0  0  0  0
    0.6125   -4.2542    0.0000 C   0  0  0  0  0  0  0  0  0  0  0  0
    1.2292   -3.1917    0.0000 C   0  0  0  0  0  0  0  0  0  0  0  0
  2  1  2  0
  3  9  1  0
  4  1  1  0
  5  8  1  0
  6  1  1  0
  7 11  1  0
  8 12  1  0
  9  7  1  0
 10  4  1  0
 11  5  1  0
 12 15  2  0
 13 14  1  0
 14 10  2  0
 15 10  1  0
 16  7  1  0
 17  3  1  0
 18 17  1  0
 19 17  1  0
  8 13  2  0
M  END
> <chembl_id>
CHEMBL24

> <chembl_pref_name>
ATENOLOL

$$$$

     RDKit          2D

 13 14  0  0  0  0  0  0  0  0999 V2000
    6.0875   -6.8917    0.0000 N   0  0  0  0  0  0  0  0  0  0  0  0
    5.3750   -6.8917    0.0000 C   0  0  0  0  0  0  0  0  0  0  0  0
    6.3042   -6.1917    0.0000 C   0  0  0  0  0  0  0  0  0  0  0  0
    5.7292   -5.7917    0.0000 O   0  0  0  0  0  0  0  0  0  0  0  0
    5.1542   -6.1917    0.0000 C   0  0  0  0  0  0  0  0  0  0  0  0
    4.9667   -7.4667    0.0000 O   0  0  0  0  0  0  0  0  0  0  0  0
    4.5292   -5.8542    0.0000 C   0  0  0  0  0  0  0  0  0  0  0  0
    6.9792   -5.9500    0.0000 N   0  0  0  0  0  0  0  0  0  0  0  0
    3.9417   -6.2292    0.0000 C   0  0  0  0  0  0  0  0  0  0  0  0
    4.5167   -5.1500    0.0000 C   0  0  0  0  0  0  0  0  0  0  0  0
    3.8792   -4.8250    0.0000 C   0  0  0  0  0  0  0  0  0  0  0  0
    3.3167   -5.9042    0.0000 C   0  0  0  0  0  0  0  0  0  0  0  0
    3.2917   -5.1875    0.0000 C   0  0  0  0  0  0  0  0  0  0  0  0
  2  1  1  0
  3  1  2  0
  4  3  1  0
  5  2  1  0
  6  2  2  0
  7  5  1  0
  8  3  1  0
  9  7  1  0
 10  7  2  0
 11 10  1  0
 12  9  2  0
 13 11  2  0
  4  5  1  0
 13 12  1  0
M  END
> <chembl_id>
CHEMBL1177

> <chembl_pref_name>
PEMOLINE

$$$$

     RDKit          2D

 17 17  0  0  0  0  0  0  0  0999 V2000
   -1.4458    0.6833    0.0000 C   0  0  0  0  0  0  0  0  0  0  0  0
   -0.1958   -1.4542    0.0000 C   0  0  0  0  0  0  0  0  0  0  0  0
   -0.2083   -0.0292    0.0000 C   0  0  0  0  0  0  0  0  0  0  0  0
   -2.6833   -0.0292    0.0000 N   0  0  0  0  0  0  0  0  0  0  0  0
   -1.4208   -2.1917    0.0000 N   0  0  0  0  0  0  0  0  0  0  0  0
   -2.6583   -1.4542    0.0000 C   0  0  0  0  0  0  0  0  0  0  0  0
    1.0542   -2.1875    0.0000 O   0  0  0  0  0  0  0  0  0  0  0  0
   -1.4458    2.1250    0.0000 O   0  0  0  0  0  0  0  0  0  0  0  0
   -3.8958   -2.1917    0.0000 O   0  0  0  0  0  0  0  0  0  0  0  0
    0.5000    1.2208    0.0000 C   0  0  0  0  0  0  0  0  0  0  0  0
    1.9167   -1.2875    0.0000 C   0  0  0  0  0  0  0  0  0  0  0  0
    1.2125   -0.0417    0.0000 C   0  0  0  0  0  0  0  0  0  0  0  0
    3.3500   -1.3000    0.0000 C   0  0  0  0  0  0  0  0  0  0  0  0
    1.9167    1.2333    0.0000 C   0  0  0  0  0  0  0  0  0  0  0  0
   -0.2208    2.4625    0.0000 C   0  0  0  0  0  0  0  0  0  0  0  0
    2.6417   -0.0167    0.0000 C   0  0  0  0  0  0  0  0  0  0  0  0
    4.0750   -0.0042    0.0000 C   0  0  0  0  0  0  0  0  0  0  0  0
  2  3  1  0
  3  1  1  0
  4  1  1  0
  5  6  1  0
  6  4  1  0
  7  2  2  0
  8  1  2  0
  9  6  2  0
 10  3  1  0
 11 12  1  0
 12  3  1  0
 13 11  2  0
 14 10  1  0
 15 10  1  0
 16 14  1  0
 17 16  1  0
  2  5  1  0
M  END
> <chembl_id>
CHEMBL447

> <chembl_pref_name>
SECOBARBITAL

$$$$

     RDKit          2D

 17 18  0  0  0  0  0  0  0  0999 V2000
    2.4458   -1.2375    0.0000 S   0  0  0  0  0  0  0  0  0  0  0  0
    3.0667   -0.8792    0.0000 N   0  0  0  0  0  0  0  0  0  0  0  0
    3.6792   -1.2375    0.0000 C   0  0  0  0  0  0  0  0  0  0  0  0
    4.2500   -0.8167    0.0000 N   0  0  0  0  0  0  0  0  0  0  0  0
    3.8917   -1.9042    0.0000 C   0  0  0  0  0  0  0  0  0  0  0  0
    4.8250   -1.2375    0.0000 O   0  0  0  0  0  0  0  0  0  0  0  0
    1.8375   -0.8792    0.0000 C   0  0  0  0  0  0  0  0  0  0  0  0
    4.6042   -1.9042    0.0000 C   0  0  0  0  0  0  0  0  0  0  0  0
    2.1042   -1.8500    0.0000 O   0  0  0  0  0  0  0  0  0  0  0  0
    2.8042   -1.8500    0.0000 O   0  0  0  0  0  0  0  0  0  0  0  0
    1.8375   -0.1667    0.0000 C   0  0  0  0  0  0  0  0  0  0  0  0
    1.2250   -1.2375    0.0000 C   0  0  0  0  0  0  0  0  0  0  0  0
    0.6125   -0.1667    0.0000 C   0  0  0  0  0  0  0  0  0  0  0  0
    0.0000    0.1875    0.0000 N   0  0  0  0  0  0  0  0  0  0  0  0
    1.2250    0.1833    0.0000 C   0  0  0  0  0  0  0  0  0  0  0  0
    0.6125   -0.8792    0.0000 C   0  0  0  0  0  0  0  0  0  0  0  0
    5.2167   -2.2542    0.0000 C   0  0  0  0  0  0  0  0  0  0  0  0
  2  1  1  0
  3  2  1  0
  4  3  2  0
  5  3  1  0
  6  4  1  0
  7  1  1  0
  8  5  2  0
  9  1  2  0
 10  1  2  0
 11  7  2  0
 12  7  1  0
 13 16  1  0
 14 13  1  0
 15 11  1  0
 16 12  2  0
 17  8  1  0
 15 13  2  0
  8  6  1  0
M  END
> <chembl_id>
CHEMBL443

> <chembl_pref_name>
SULFAMETHOXAZOLE

$$$$

     RDKit          2D

 17 18  0  0  0  0  0  0  0  0999 V2000
   -0.1426    2.8722    0.0000 O   0  0  0  0  0  0  0  0  0  0  0  0
   -0.1426    2.0472    0.0000 C   0  0  0  0  0  0  0  0  0  0  0  0
   -0.8571    1.6347    0.0000 C   0  0  0  0  0  0  0  0  0  0  0  0
   -1.5716    2.0472    0.0000 C   0  0  0  0  0  0  0  0  0  0  0  0
   -0.8571    0.8097    0.0000 C   0  0  0  0  0  0  0  0  0  0  0  0
    0.5719    1.6347    0.0000 N   0  0  0  0  0  0  0  0  0  0  0  0
    0.5719    0.8097    0.0000 C   0  0  0  0  0  0  0  0  0  0  0  0
    1.2863    0.3972    0.0000 O   0  0  0  0  0  0  0  0  0  0  0  0
   -0.1426    0.3972    0.0000 N   0  0  0  0  0  0  0  0  0  0  0  0
   -0.1426   -0.4278    0.0000 C   0  0  0  0  0  0  0  0  0  0  0  0
    0.5248   -0.9127    0.0000 O   0  0  0  0  0  0  0  0  0  0  0  0
    0.2699   -1.6974    0.0000 C   0  0  0  0  0  0  0  0  0  0  0  0
    0.7548   -2.3648    0.0000 C   0  0  0  0  0  0  0  0  0  0  0  0
    1.5753   -2.2786    0.0000 O   0  0  0  0  0  0  0  0  0  0  0  0
   -0.5551   -1.6974    0.0000 C   0  0  0  0  0  0  0  0  0  0  0  0
   -1.0400   -2.3648    0.0000 O   0  0  0  0  0  0  0  0  0  0  0  0
   -0.8101   -0.9127    0.0000 C   0  0  0  0  0  0  0  0  0  0  0  0
  2  1  2  0
  2  6  1  0
  2  3  1  0
  3  4  1  0
  3  5  2  0
  5  9  1  0
  7  6  1  0
  7  8  2  0
  7  9  1  0
 10  9  1  1
 10 11  1  0
 10 17  1  0
 12 11  1  0
 12 13  1  1
 15 12  1  0
 13 14  1  0
 17 15  1  0
 15 16  1  6
M  END
> <chembl_id>
CHEMBL374731

> <chembl_pref_name>
TELBIVUDINE

$$$$

     RDKit          2D

 21 22  0  0  1  0  0  0  0  0999 V2000
    7.2875   -3.2333    0.0000 C   0  0  0  0  0  0  0  0  0  0  0  0
    7.2875   -2.5292    0.0000 C   0  0  0  0  0  0  0  0  0  0  0  0
    6.6750   -3.5917    0.0000 C   0  0  0  0  0  0  0  0  0  0  0  0
    7.8958   -2.1750    0.0000 C   0  0  0  0  0  0  0  0  0  0  0  0
    7.8958   -1.4667    0.0000 O   0  0  0  0  0  0  0  0  0  0  0  0
   10.3500   -1.4625    0.0000 N   0  0  0  0  0  0  0  0  0  0  0  0
    6.6792   -4.3000    0.0000 O   0  0  0  0  0  0  0  0  0  0  0  0
   10.9625   -1.1042    0.0000 C   0  0  0  0  0  0  0  0  0  0  0  0
    9.1208   -1.4625    0.0000 C   0  0  0  0  0  0  0  0  0  0  0  0
    8.5083   -1.1125    0.0000 C   0  0  0  0  0  0  0  0  0  0  0  0
    9.7333   -1.1083    0.0000 C   0  0  0  0  0  0  0  0  0  0  0  0
    7.8958   -3.5875    0.0000 C   0  0  0  0  0  0  0  0  0  0  0  0
    6.6750   -2.1750    0.0000 C   0  0  0  0  0  0  0  0  0  0  0  0
    9.1250   -2.1708    0.0000 O   0  0  0  0  0  0  0  0  0  0  0  0
    6.0667   -3.2375    0.0000 C   0  0  0  0  0  0  0  0  0  0  0  0
    6.0667   -2.5292    0.0000 C   0  0  0  0  0  0  0  0  0  0  0  0
    8.5083   -3.2333    0.0000 C   0  0  0  0  0  0  0  0  0  0  0  0
    8.5083   -2.5250    0.0000 C   0  0  0  0  0  0  0  0  0  0  0  0
   11.3125   -0.4875    0.0000 C   0  0  0  0  0  0  0  0  0  0  0  0
   10.6042   -0.4875    0.0000 C   0  0  0  0  0  0  0  0  0  0  0  0
   11.5750   -1.4583    0.0000 C   0  0  0  0  0  0  0  0  0  0  0  0
  2  1  2  0
  3  1  1  0
  4  2  1  0
  5  4  1  0
  6 11  1  0
  7  3  2  0
  8  6  1  0
  9 10  1  0
 10  5  1  0
 11  9  1  0
 12  1  1  0
 13  2  1  0
  9 14  1  6
 15  3  1  0
 16 15  1  0
 17 12  2  0
 18 17  1  0
 19  8  1  0
 20  8  1  0
 21  8  1  0
 13 16  1  0
  4 18  2  0
M  END
> <chembl_id>
CHEMBL1201237

> <chembl_pref_name>
LEVOBUNOLOL

$$$$

     RDKit          2D

  9  4  0  0  0  0  0  0  0  0999 V2000
    3.2625    1.3125    0.0000 O   0  0  0  0  0  0  0  0  0  0  0  0
   -0.4000   -0.0667    0.0000 P   0  0  0  0  0  0  0  0  0  0  0  0
    1.0792   -0.1042    0.0000 O   0  0  0  0  0  0  0  0  0  0  0  0
    0.3167   -1.3000    0.0000 O   0  0  0  0  0  0  0  0  0  0  0  0
   -0.4000    1.4000    0.0000 O   0  0  0  0  0  0  0  0  0  0  0  0
   -1.6958   -0.4500    0.0000 O   0  0  0  0  0  0  0  0  0  0  0  0
    1.2000   -1.0292    0.0000 Na  0  0  0  0  0 15  0  0  0  0  0  0
   -0.9458   -1.1375    0.0000 Na  0  0  0  0  0 15  0  0  0  0  0  0
   -2.5500    1.5625    0.0000 O   0  0  0  0  0  0  0  0  0  0  0  0
  3  2  1  0
  4  2  1  0
  5  2  2  0
  6  2  1  0
M  CHG  4   3  -1   4  -1   7   1   8   1
M  END
> <chembl_id>
CHEMBL2107560

> <chembl_pref_name>
SODIUM PHOSPHATE, DIBASIC

$$$$

     RDKit          2D

 22 23  0  0  0  0  0  0  0  0999 V2000
    5.8202   -2.7640    0.0000 C   0  0  0  0  0  0  0  0  0  0  0  0
    6.8978   -3.5773    0.0000 C   0  0  0  0  0  0  0  0  0  0  0  0
    6.3784   -3.1407    0.0000 C   0  0  0  0  0  0  0  0  0  0  0  0
    5.3913   -3.1407    0.0000 C   0  0  0  0  0  0  0  0  0  0  0  0
    5.2474   -2.3163    0.0000 N   0  0  0  0  0  0  0  0  0  0  0  0
    6.7599   -2.7486    0.0000 C   0  0  0  0  0  0  0  0  0  0  0  0
    4.8638   -3.8646    0.0000 C   0  0  0  0  0  0  0  0  0  0  0  0
    5.4914   -3.4843    0.0000 C   0  0  0  0  0  0  0  0  0  0  0  0
    5.4564   -1.5179    0.0000 C   0  0  0  0  0  0  0  0  0  0  0  0
    4.4490   -2.5299    0.0000 C   0  0  0  0  0  0  0  0  0  0  0  0
    4.5629   -3.1407    0.0000 H   0  0  0  0  0  0  0  0  0  0  0  0
    6.2222   -2.0467    0.0000 H   0  0  0  0  0  0  0  0  0  0  0  0
    7.1065   -4.3670    0.0000 O   0  0  0  0  0  0  0  0  0  0  0  0
    7.8176   -4.7772    0.0000 C   0  0  0  0  0  0  0  0  0  0  0  0
    8.5338   -4.3687    0.0000 C   0  0  0  0  0  0  0  0  0  0  0  0
    7.8157   -5.6022    0.0000 O   0  0  0  0  0  0  0  0  0  0  0  0
    9.2479   -4.7807    0.0000 C   0  0  0  0  0  0  0  0  0  0  0  0
    8.5358   -3.5436    0.0000 C   0  0  0  0  0  0  0  0  0  0  0  0
    9.2520   -3.1305    0.0000 C   0  0  0  0  0  0  0  0  0  0  0  0
    9.2541   -2.3055    0.0000 C   0  0  0  0  0  0  0  0  0  0  0  0
    9.9641   -4.3722    0.0000 C   0  0  0  0  0  0  0  0  0  0  0  0
   10.6783   -4.7842    0.0000 C   0  0  0  0  0  0  0  0  0  0  0  0
  2  3  1  0
  4 11  1  1
  3  4  1  0
  1 12  1  6
  4  5  1  0
  2 13  1  6
  5  1  1  0
 13 14  1  0
  1  6  1  0
 14 15  1  0
  6  2  1  0
 14 16  2  0
  4  7  1  0
 15 17  1  0
  1  8  1  0
 15 18  1  0
  7  8  1  0
 18 19  1  0
 19 20  1  0
  5  9  1  0
 17 21  1  0
 21 22  1  0
  5 10  1  0
M  CHG  1   5   1
M  END
> <chembl_id>
CHEMBL1186610

> <chembl_pref_name>
ANISOTROPINE

$$$$

     RDKit          2D

 19 19  0  0  0  0  0  0  0  0999 V2000
    0.8042   -2.6875    0.0000 Cl  0  0  0  0  0  0  0  0  0  0  0  0
    0.8042   -0.3333    0.0000 C   0  0  0  0  0  0  0  0  0  0  0  0
    1.4167   -0.6875    0.0000 C   0  0  0  0  0  0  0  0  0  0  0  0
   -0.4250   -0.3292    0.0000 N   0  0  0  0  0  0  0  0  0  0  0  0
    0.1875   -0.6875    0.0000 C   0  0  0  0  0  0  0  0  0  0  0  0
    0.8042    0.3750    0.0000 C   0  0  0  0  0  0  0  0  0  0  0  0
    1.4167   -1.3958    0.0000 O   0  0  0  0  0  0  0  0  0  0  0  0
    2.0292   -0.3333    0.0000 O   0  0  0  0  0  0  0  0  0  0  0  0
   -1.0333   -0.6875    0.0000 C   0  0  0  0  0  0  0  0  0  0  0  0
    0.1917    0.7292    0.0000 C   0  0  0  0  0  0  0  0  0  0  0  0
    1.4167    0.7292    0.0000 C   0  0  0  0  0  0  0  0  0  0  0  0
    0.1875   -1.3917    0.0000 C   0  0  0  0  0  0  0  0  0  0  0  0
    2.6417   -0.6875    0.0000 C   0  0  0  0  0  0  0  0  0  0  0  0
   -1.0333   -1.3917    0.0000 C   0  0  0  0  0  0  0  0  0  0  0  0
    1.4208    1.4375    0.0000 C   0  0  0  0  0  0  0  0  0  0  0  0
    0.1875    1.4333    0.0000 C   0  0  0  0  0  0  0  0  0  0  0  0
   -0.4250   -1.7500    0.0000 C   0  0  0  0  0  0  0  0  0  0  0  0
    0.8042    1.7917    0.0000 C   0  0  0  0  0  0  0  0  0  0  0  0
    0.8000   -1.0417    0.0000 H   0  0  0  0  0  0  0  0  0  0  0  0
  3  2  1  0
  4  5  1  0
  5  2  1  0
  2  6  1  1
  7  3  2  0
  8  3  1  0
  9  4  1  0
 10  6  1  0
 11  6  2  0
 12  5  1  0
 13  8  1  0
 14  9  1  0
 15 11  1  0
 16 10  2  0
 17 12  1  0
 18 16  1  0
  5 19  1  6
 17 14  1  0
 18 15  2  0
M  END
> <chembl_id>
CHEMBL904

> <chembl_pref_name>
DEXMETHYLPHENIDATE HYDROCHLORIDE

$$$$

     RDKit          2D

  6  3  0  0  0  0  0  0  0  0999 V2000
    6.6417   -5.3542    0.0000 Li  0  0  0  0  0 15  0  0  0  0  0  0
    5.3667   -5.0000    0.0000 C   0  0  0  0  0  0  0  0  0  0  0  0
    5.9792   -5.3500    0.0000 O   0  0  0  0  0  0  0  0  0  0  0  0
    4.7500   -5.3542    0.0000 O   0  0  0  0  0  0  0  0  0  0  0  0
    5.3667   -4.2917    0.0000 O   0  0  0  0  0  0  0  0  0  0  0  0
    4.0875   -5.3542    0.0000 Li  0  0  0  0  0 15  0  0  0  0  0  0
  3  2  1  0
  4  2  1  0
  5  2  2  0
M  CHG  4   1   1   3  -1   4  -1   6   1
M  END
> <chembl_id>
CHEMBL1200826

> <chembl_pref_name>
LITHIUM CARBONATE

$$$$

     RDKit          2D

  7  4  0  0  0  0  0  0  0  0999 V2000
    2.5250   -4.2500    0.0000 Na  0  0  0  0  0 15  0  0  0  0  0  0
    0.9000   -3.8750    0.0000 P   0  0  0  0  0  0  0  0  0  0  0  0
    0.2917   -4.2292    0.0000 O   0  0  0  0  0  0  0  0  0  0  0  0
    1.5042   -4.2292    0.0000 O   0  0  0  0  0  0  0  0  0  0  0  0
    1.2500   -3.2542    0.0000 O   0  0  0  0  0  0  0  0  0  0  0  0
    0.5417   -3.2542    0.0000 O   0  0  0  0  0  0  0  0  0  0  0  0
   -0.9083   -4.2792    0.0000 Na  0  0  0  0  0 15  0  0  0  0  0  0
  3  2  1  0
  4  2  1  0
  5  2  2  0
  6  2  1  0
M  CHG  4   1   1   3  -1   4  -1   7   1
M  ISO  1   2  32
M  END
> <chembl_id>
CHEMBL2107525

> <chembl_pref_name>
SODIUM PHOSPHATE P 32

$$$$

     RDKit          2D

  9  8  0  0  0  0  0  0  0  0999 V2000
   12.1089   -0.1346    0.0000 C   0  0  0  0  0  0  0  0  0  0  0  0
   12.1089    0.6771    0.0000 O   0  0  0  0  0  0  0  0  0  0  0  0
   11.3355   -0.4115    0.0000 C   0  0  0  0  0  0  0  0  0  0  0  0
   12.7821   -0.6120    0.0000 O   0  0  0  0  0  0  0  0  0  0  0  0
   11.3187   -1.2160    0.0000 N   0  0  0  0  0  0  0  0  0  0  0  0
    9.3565    0.4097    0.0000 Se  0  0  0  0  0  2  0  0  0  0  0  0
   10.6527    0.0516    0.0000 C   0  0  0  0  0  0  0  0  0  0  0  0
    9.8745   -0.2277    0.0000 C   0  0  0  0  0  0  0  0  0  0  0  0
    8.5782    0.1375    0.0000 C   0  0  0  0  0  0  0  0  0  0  0  0
  2  1  2  0
  3  1  1  0
  4  1  1  0
  3  5  1  1
  6  8  1  0
  7  3  1  0
  8  7  1  0
  9  6  1  0
M  END
> <chembl_id>
CHEMBL113178

> <chembl_pref_name>
SELENOMETHIONINE

$$$$

     RDKit          2D

 16 16  0  0  0  0  0  0  0  0999 V2000
    6.3167   -4.3583    0.0000 C   0  0  0  0  0  0  0  0  0  0  0  0
    6.9208   -4.7125    0.0000 N   0  0  0  0  0  0  0  0  0  0  0  0
    5.6958   -4.7333    0.0000 C   0  0  0  0  0  0  0  0  0  0  0  0
    6.3167   -3.6500    0.0000 O   0  0  0  0  0  0  0  0  0  0  0  0
    5.6958   -5.4333    0.0000 C   0  0  0  0  0  0  0  0  0  0  0  0
    5.0917   -4.3792    0.0000 C   0  0  0  0  0  0  0  0  0  0  0  0
    3.2375   -5.4667    0.0000 N   0  0  0  0  0  0  0  0  0  0  0  0
    2.6292   -5.8292    0.0000 N   0  0  0  0  0  0  0  0  0  0  0  0
    5.0917   -5.7917    0.0000 C   0  0  0  0  0  0  0  0  0  0  0  0
    4.4750   -4.7375    0.0000 C   0  0  0  0  0  0  0  0  0  0  0  0
    4.4750   -5.4375    0.0000 C   0  0  0  0  0  0  0  0  0  0  0  0
    7.5375   -4.3417    0.0000 C   0  0  0  0  0  0  0  0  0  0  0  0
    3.8500   -5.8125    0.0000 C   0  0  0  0  0  0  0  0  0  0  0  0
    2.0042   -5.4792    0.0000 C   0  0  0  0  0  0  0  0  0  0  0  0
    8.1458   -4.6958    0.0000 C   0  0  0  0  0  0  0  0  0  0  0  0
    7.5375   -3.6500    0.0000 C   0  0  0  0  0  0  0  0  0  0  0  0
  2  1  1  0
  3  1  1  0
  4  1  2  0
  5  3  2  0
  6  3  1  0
  7 13  1  0
  8  7  1  0
  9  5  1  0
 10  6  2  0
 11 10  1  0
 12  2  1  0
 13 11  1  0
 14  8  1  0
 15 12  1  0
 16 12  1  0
 11  9  2  0
M  END
> <chembl_id>
CHEMBL1321

> <chembl_pref_name>
PROCARBAZINE

$$$$

     RDKit          2D

 21 23  0  0  0  0  0  0  0  0999 V2000
   -1.1958   -6.9042    0.0000 N   0  0  0  0  0  0  0  0  0  0  0  0
   -1.7875   -5.8167    0.0000 C   0  0  0  0  0  0  0  0  0  0  0  0
   -1.8208   -7.2500    0.0000 C   0  0  0  0  0  0  0  0  0  0  0  0
   -2.3625   -6.2375    0.0000 N   0  0  0  0  0  0  0  0  0  0  0  0
   -2.4458   -6.9000    0.0000 C   0  0  0  0  0  0  0  0  0  0  0  0
   -1.1583   -6.1792    0.0000 C   0  0  0  0  0  0  0  0  0  0  0  0
   -1.9958   -5.1417    0.0000 N   0  0  0  0  0  0  0  0  0  0  0  0
   -0.5958   -7.2667    0.0000 C   0  0  0  0  0  0  0  0  0  0  0  0
    0.0250   -6.9417    0.0000 C   0  0  0  0  0  0  0  0  0  0  0  0
   -0.6000   -7.9917    0.0000 C   0  0  0  0  0  0  0  0  0  0  0  0
   -3.0583   -7.2500    0.0000 C   0  0  0  0  0  0  0  0  0  0  0  0
    0.0042   -8.3542    0.0000 C   0  0  0  0  0  0  0  0  0  0  0  0
    0.6292   -7.2917    0.0000 C   0  0  0  0  0  0  0  0  0  0  0  0
    0.6375   -7.9917    0.0000 C   0  0  0  0  0  0  0  0  0  0  0  0
   -3.6708   -6.9125    0.0000 O   0  0  0  0  0  0  0  0  0  0  0  0
   -1.8083   -7.9542    0.0000 C   0  0  0  0  0  0  0  0  0  0  0  0
   -2.9208   -5.8042    0.0000 C   0  0  0  0  0  0  0  0  0  0  0  0
   -2.6958   -5.1375    0.0000 C   0  0  0  0  0  0  0  0  0  0  0  0
   -2.4000   -8.3250    0.0000 C   0  0  0  0  0  0  0  0  0  0  0  0
   -3.0375   -7.9667    0.0000 C   0  0  0  0  0  0  0  0  0  0  0  0
    1.2667   -8.3542    0.0000 C   0  0  0  0  0  0  0  0  0  0  0  0
  2  6  1  0
  3  1  1  0
  4  2  2  0
  5  3  2  0
  6  1  1  0
  7  2  1  0
  8  1  1  0
  9  8  1  0
 10  8  2  0
 11  5  1  0
 12 10  1  0
 13  9  2  0
 14 12  2  0
 15 11  1  0
 16  3  1  0
 17  4  1  0
 18  7  1  0
 19 16  2  0
 20 11  2  0
 21 14  1  0
 17 18  1  0
 19 20  1  0
 14 13  1  0
M  END
> <chembl_id>
CHEMBL597

> <chembl_pref_name>
PHENTOLAMINE

$$$$

     RDKit          2D

  6  5  0  0  0  0  0  0  0  0999 V2000
    5.0750   -5.3542    0.0000 S   0  0  0  0  0  0  0  0  0  0  0  0
    5.0750   -4.6500    0.0000 C   0  0  0  0  0  0  0  0  0  0  0  0
    3.8417   -4.6500    0.0000 S   0  0  0  0  0  0  0  0  0  0  0  0
    6.3042   -4.6500    0.0000 O   0  0  0  0  0  0  0  0  0  0  0  0
    4.4625   -4.2917    0.0000 C   0  0  0  0  0  0  0  0  0  0  0  0
    5.6875   -4.2917    0.0000 C   0  0  0  0  0  0  0  0  0  0  0  0
  2  1  1  0
  3  5  1  0
  4  6  1  0
  5  2  1  0
  6  2  1  0
M  END
> <chembl_id>
CHEMBL1597

> <chembl_pref_name>
DIMERCAPROL

$$$$

     RDKit          2D

 22 24  0  0  0  0  0  0  0  0999 V2000
    5.6667   -4.8167    0.0000 C   0  0  0  0  0  0  0  0  0  0  0  0
    5.6667   -5.5250    0.0000 C   0  0  0  0  0  0  0  0  0  0  0  0
    6.2792   -5.8917    0.0000 N   0  0  0  0  0  0  0  0  0  0  0  0
    5.0542   -4.4667    0.0000 C   0  0  0  0  0  0  0  0  0  0  0  0
    4.4417   -4.8167    0.0000 C   0  0  0  0  0  0  0  0  0  0  0  0
    6.8917   -4.8167    0.0000 C   0  0  0  0  0  0  0  0  0  0  0  0
    6.8917   -5.5250    0.0000 C   0  0  0  0  0  0  0  0  0  0  0  0
    5.0542   -5.8917    0.0000 O   0  0  0  0  0  0  0  0  0  0  0  0
    6.2792   -4.4667    0.0000 C   0  0  0  0  0  0  0  0  0  0  0  0
    4.4417   -5.5250    0.0000 C   0  0  0  0  0  0  0  0  0  0  0  0
    3.8292   -4.4667    0.0000 C   0  0  0  0  0  0  0  0  0  0  0  0
    7.5042   -4.4667    0.0000 C   0  0  0  0  0  0  0  0  0  0  0  0
    3.2167   -4.8167    0.0000 C   0  0  0  0  0  0  0  0  0  0  0  0
    5.0542   -3.7542    0.0000 O   0  0  0  0  0  0  0  0  0  0  0  0
    3.8292   -5.8917    0.0000 C   0  0  0  0  0  0  0  0  0  0  0  0
    7.5125   -3.7542    0.0000 O   0  0  0  0  0  0  0  0  0  0  0  0
    3.2167   -5.5250    0.0000 C   0  0  0  0  0  0  0  0  0  0  0  0
    7.5042   -5.8917    0.0000 N   0  0  0  0  0  0  0  0  0  0  0  0
    8.1542   -4.8167    0.0000 O   0  0  0  0  0  0  0  0  0  0  0  0
    2.6042   -4.4667    0.0000 C   0  0  0  0  0  0  0  0  0  0  0  0
    2.6042   -3.7542    0.0000 C   0  0  0  0  0  0  0  0  0  0  0  0
    1.9917   -4.8000    0.0000 C   0  0  0  0  0  0  0  0  0  0  0  0
  2  1  1  0
  3  2  2  0
  4  1  1  0
  5  4  1  0
  6  9  1  0
  7  6  2  0
  8  2  1  0
  9  1  2  0
 10  5  2  0
 11  5  1  0
 12  6  1  0
 13 11  2  0
 14  4  2  0
 15 10  1  0
 16 12  2  0
 17 13  1  0
 18  7  1  0
 19 12  1  0
 20 13  1  0
 21 20  1  0
 22 20  1  0
  7  3  1  0
 10  8  1  0
 17 15  2  0
M  END
> <chembl_id>
CHEMBL1096

> <chembl_pref_name>
AMLEXANOX

$$$$

     RDKit          2D

 17 18  0  0  1  0  0  0  0  0999 V2000
    5.8208   -3.4375    0.0000 N   0  0  0  0  0  0  0  0  0  0  0  0
    6.4333   -3.0792    0.0000 C   0  0  0  0  0  0  0  0  0  0  0  0
    6.4333   -2.3750    0.0000 N   0  0  0  0  0  0  0  0  0  0  0  0
    5.8292   -4.3792    0.0000 C   0  0  0  0  0  0  0  0  0  0  0  0
    5.2125   -3.0792    0.0000 C   0  0  0  0  0  0  0  0  0  0  0  0
    5.2125   -2.3750    0.0000 C   0  0  0  0  0  0  0  0  0  0  0  0
    5.8208   -2.0167    0.0000 C   0  0  0  0  0  0  0  0  0  0  0  0
    5.2542   -3.9625    0.0000 O   0  0  0  0  0  0  0  0  0  0  0  0
    5.6083   -5.0542    0.0000 C   0  0  0  0  0  0  0  0  0  0  0  0
    4.6833   -4.3792    0.0000 C   0  0  0  0  0  0  0  0  0  0  0  0
    4.9000   -5.0542    0.0000 C   0  0  0  0  0  0  0  0  0  0  0  0
    7.0500   -3.4333    0.0000 O   0  0  0  0  0  0  0  0  0  0  0  0
    5.8208   -1.3125    0.0000 O   0  0  0  0  0  0  0  0  0  0  0  0
    4.5958   -2.0208    0.0000 F   0  0  0  0  0  0  0  0  0  0  0  0
    4.4875   -5.6250    0.0000 O   0  0  0  0  0  0  0  0  0  0  0  0
    4.0625   -4.0250    0.0000 C   0  0  0  0  0  0  0  0  0  0  0  0
    3.4500   -4.3750    0.0000 O   0  0  0  0  0  0  0  0  0  0  0  0
  2  1  1  0
  3  2  1  0
  4  1  1  1
  5  1  1  0
  6  5  2  0
  7  3  1  0
  8  4  1  0
  9  4  1  0
 10  8  1  0
 11  9  1  0
 12  2  2  0
 13  7  2  0
 14  6  1  0
 11 15  1  6
 10 16  1  1
 17 16  1  0
 11 10  1  0
  7  6  1  0
M  END
> <chembl_id>
CHEMBL917

> <chembl_pref_name>
FLOXURIDINE

$$$$

     RDKit          2D

 24 27  0  0  1  0  0  0  0  0999 V2000
    4.1292   -5.2542    0.0000 C   0  0  0  0  0  0  0  0  0  0  0  0
    5.9667   -4.1792    0.0000 C   0  0  0  0  0  0  0  0  0  0  0  0
    4.1375   -5.9667    0.0000 C   0  0  0  0  0  0  0  0  0  0  0  0
    4.7375   -4.9000    0.0000 C   0  0  0  0  0  0  0  0  0  0  0  0
    5.9750   -4.8917    0.0000 C   0  0  0  0  0  0  0  0  0  0  0  0
    5.3542   -5.2500    0.0000 C   0  0  0  0  0  0  0  0  0  0  0  0
    3.5250   -6.3167    0.0000 C   0  0  0  0  0  0  0  0  0  0  0  0
    5.3417   -3.8375    0.0000 C   0  0  0  0  0  0  0  0  0  0  0  0
    4.7292   -4.1917    0.0000 C   0  0  0  0  0  0  0  0  0  0  0  0
    3.5167   -4.9000    0.0000 C   0  0  0  0  0  0  0  0  0  0  0  0
    5.3625   -5.9667    0.0000 C   0  0  0  0  0  0  0  0  0  0  0  0
    6.6417   -5.1042    0.0000 C   0  0  0  0  0  0  0  0  0  0  0  0
    4.7417   -6.3167    0.0000 C   0  0  0  0  0  0  0  0  0  0  0  0
    6.6417   -3.9625    0.0000 C   0  0  0  0  0  0  0  0  0  0  0  0
    2.9042   -5.9750    0.0000 C   0  0  0  0  0  0  0  0  0  0  0  0
    7.0542   -4.5292    0.0000 C   0  0  0  0  0  0  0  0  0  0  0  0
    2.2917   -6.3542    0.0000 O   0  0  0  0  0  0  0  0  0  0  0  0
    2.9000   -5.2500    0.0000 C   0  0  0  0  0  0  0  0  0  0  0  0
    4.1375   -4.5500    0.0000 C   0  0  0  0  0  0  0  0  0  0  0  0
    5.9625   -3.4750    0.0000 C   0  0  0  0  0  0  0  0  0  0  0  0
    6.8667   -3.2917    0.0000 O   0  0  0  0  0  0  0  0  0  0  0  0
    5.3625   -4.5417    0.0000 H   0  0  0  0  0  0  0  0  0  0  0  0
    4.7417   -5.6042    0.0000 H   0  0  0  0  0  0  0  0  0  0  0  0
    5.9875   -5.6000    0.0000 H   0  0  0  0  0  0  0  0  0  0  0  0
  2  8  1  0
  3  1  1  0
  4  1  1  0
  5  6  1  0
  6  4  1  0
  7  3  2  0
  8  9  1  0
  9  4  1  0
 10  1  1  0
 11  6  1  0
 12  5  1  0
 13  3  1  0
 14  2  1  0
 15 18  1  0
 16 12  1  0
 17 15  2  0
 18 10  1  0
  1 19  1  1
  2 20  1  1
 14 21  1  1
  6 22  1  1
  4 23  1  6
  5 24  1  6
 11 13  1  0
 15  7  1  0
  2  5  1  0
 16 14  1  0
M  END
> <chembl_id>
CHEMBL386630

> <chembl_pref_name>
TESTOSTERONE

$$$$

     RDKit          2D

 18 19  0  0  0  0  0  0  0  0999 V2000
    6.5250   -3.6917    0.0000 C   0  0  0  0  0  0  0  0  0  0  0  0
    6.8625   -4.3208    0.0000 C   0  0  0  0  0  0  0  0  0  0  0  0
    5.3042   -2.9917    0.0000 N   0  0  0  0  0  0  0  0  0  0  0  0
    6.5250   -2.9875    0.0000 C   0  0  0  0  0  0  0  0  0  0  0  0
    5.9250   -4.0542    0.0000 C   0  0  0  0  0  0  0  0  0  0  0  0
    7.1417   -3.3417    0.0000 C   0  0  0  0  0  0  0  0  0  0  0  0
    7.5792   -4.3417    0.0000 O   0  0  0  0  0  0  0  0  0  0  0  0
    5.9167   -2.6292    0.0000 C   0  0  0  0  0  0  0  0  0  0  0  0
    5.3042   -3.7042    0.0000 C   0  0  0  0  0  0  0  0  0  0  0  0
    6.4917   -4.9250    0.0000 O   0  0  0  0  0  0  0  0  0  0  0  0
    4.6792   -2.6375    0.0000 C   0  0  0  0  0  0  0  0  0  0  0  0
    7.1500   -2.6292    0.0000 C   0  0  0  0  0  0  0  0  0  0  0  0
    7.7542   -3.6917    0.0000 C   0  0  0  0  0  0  0  0  0  0  0  0
    6.8292   -5.5417    0.0000 C   0  0  0  0  0  0  0  0  0  0  0  0
    6.4625   -6.1500    0.0000 C   0  0  0  0  0  0  0  0  0  0  0  0
    7.7625   -2.2750    0.0000 C   0  0  0  0  0  0  0  0  0  0  0  0
    8.3792   -3.3417    0.0000 C   0  0  0  0  0  0  0  0  0  0  0  0
    8.3792   -2.6292    0.0000 C   0  0  0  0  0  0  0  0  0  0  0  0
  2  1  1  0
  3  9  1  0
  4  1  1  0
  5  1  1  0
  6  1  1  0
  7  2  2  0
  8  4  1  0
  9  5  1  0
 10  2  1  0
 11  3  1  0
 12  6  1  0
 13  6  2  0
 14 10  1  0
 15 14  1  0
 16 12  2  0
 17 13  1  0
 18 16  1  0
  3  8  1  0
 18 17  2  0
M  END
> <chembl_id>
CHEMBL607

> <chembl_pref_name>
MEPERIDINE

$$$$

     RDKit          2D

 14 11  0  0  0  0  0  0  0  0999 V2000
    0.1667   -4.6375    0.0000 O   0  0  0  0  0  0  0  0  0  0  0  0
    2.9542   -3.6500    0.0000 C   0  0  0  0  0  0  0  0  0  0  0  0
    3.5542   -3.3125    0.0000 C   0  0  0  0  0  0  0  0  0  0  0  0
    2.6000   -4.2542    0.0000 C   0  0  0  0  0  0  0  0  0  0  0  0
    3.5542   -2.6167    0.0000 O   0  0  0  0  0  0  0  0  0  0  0  0
    3.3042   -4.2542    0.0000 N   0  0  0  0  0  0  0  0  0  0  0  0
    4.1625   -3.6667    0.0000 O   0  0  0  0  0  0  0  0  0  0  0  0
    1.8917   -4.2542    0.0000 F   0  0  0  0  0  0  0  0  0  0  0  0
    2.9417   -4.8792    0.0000 F   0  0  0  0  0  0  0  0  0  0  0  0
    2.3292   -3.2917    0.0000 C   0  0  0  0  0  0  0  0  0  0  0  0
    0.5000   -3.6500    0.0000 N   0  0  0  0  0  0  0  0  0  0  0  0
    1.1125   -3.2917    0.0000 C   0  0  0  0  0  0  0  0  0  0  0  0
    1.6917   -3.6500    0.0000 C   0  0  0  0  0  0  0  0  0  0  0  0
    0.8792   -4.6667    0.0000 Cl  0  0  0  0  0  0  0  0  0  0  0  0
  3  2  1  0
  4  2  1  0
  5  3  2  0
  6  2  1  0
  7  3  1  0
  8  4  1  0
  9  4  1  0
 10  2  1  0
 11 12  1  0
 12 13  1  0
 13 10  1  0
M  END
> <chembl_id>
CHEMBL1201037

> <chembl_pref_name>
EFLORNITHINE HYDROCHLORIDE

$$$$

     RDKit          2D

  2  1  0  0  0  0  0  0  0  0999 V2000
   -1.2333   -0.8125    0.0000 O   0  0  0  0  0  0  0  0  0  0  0  0
   -1.9458   -0.8125    0.0000 Cl  0  0  0  0  0  0  0  0  0  0  0  0
  2  1  1  0
M  END
> <chembl_id>
CHEMBL1616046

> <chembl_pref_name>
HYPOCHLOROUS ACID

$$$$

     RDKit          2D

 14 15  0  0  1  0  0  0  0  0999 V2000
    1.2792    1.3583    0.0000 C   0  0  0  0  0  0  0  0  0  0  0  0
    0.4792    0.9000    0.0000 N   0  0  0  0  0  0  0  0  0  0  0  0
    1.2792    2.3000    0.0000 N   0  0  0  0  0  0  0  0  0  0  0  0
    2.0792    0.9000    0.0000 C   0  0  0  0  0  0  0  0  0  0  0  0
    2.8667   -0.4792    0.0000 C   0  0  0  0  0  0  0  0  0  0  0  0
    2.0792   -0.0167    0.0000 C   0  0  0  0  0  0  0  0  0  0  0  0
    2.9917   -1.4042    0.0000 S   0  0  0  0  0  0  0  0  0  0  0  0
    3.9250   -1.5792    0.0000 C   0  0  0  0  0  0  0  0  0  0  0  0
    3.6917   -0.0792    0.0000 C   0  0  0  0  0  0  0  0  0  0  0  0
    4.3417   -0.7542    0.0000 C   0  0  0  0  0  0  0  0  0  0  0  0
   -0.3208    1.3583    0.0000 C   0  0  0  0  0  0  0  0  0  0  0  0
    0.4792    2.7583    0.0000 C   0  0  0  0  0  0  0  0  0  0  0  0
    0.4792   -0.0167    0.0000 C   0  0  0  0  0  0  0  0  0  0  0  0
   -0.3208    2.3000    0.0000 C   0  0  0  0  0  0  0  0  0  0  0  0
  2  1  1  0
  3  1  2  0
  4  1  1  0
  5  6  1  0
  6  4  2  0
  7  5  1  0
  8  7  1  0
  9  5  2  0
 10  9  1  0
 11  2  1  0
 12  3  1  0
 13  2  1  0
 14 12  1  0
 11 14  1  0
 10  8  2  0
M  END
> <chembl_id>
CHEMBL1626223

> <chembl_pref_name>
PYRANTEL

$$$$

     RDKit          2D

 20 21  0  0  0  0  0  0  0  0999 V2000
    5.0750   -6.1125    0.0000 C   0  0  0  0  0  0  0  0  0  0  0  0
    5.6875   -5.7667    0.0000 C   0  0  0  0  0  0  0  0  0  0  0  0
    4.7292   -5.4917    0.0000 C   0  0  0  0  0  0  0  0  0  0  0  0
    6.2917   -6.1250    0.0000 C   0  0  0  0  0  0  0  0  0  0  0  0
    4.4542   -6.4542    0.0000 C   0  0  0  0  0  0  0  0  0  0  0  0
    4.0167   -5.4875    0.0000 C   0  0  0  0  0  0  0  0  0  0  0  0
    5.4250   -6.7292    0.0000 O   0  0  0  0  0  0  0  0  0  0  0  0
    3.6750   -4.8750    0.0000 N   0  0  0  0  0  0  0  0  0  0  0  0
    6.2875   -6.8417    0.0000 Cl  0  0  0  0  0  0  0  0  0  0  0  0
    5.6917   -5.0542    0.0000 C   0  0  0  0  0  0  0  0  0  0  0  0
    6.9125   -5.7792    0.0000 C   0  0  0  0  0  0  0  0  0  0  0  0
    4.4500   -7.1667    0.0000 C   0  0  0  0  0  0  0  0  0  0  0  0
    3.8417   -6.0917    0.0000 C   0  0  0  0  0  0  0  0  0  0  0  0
    4.0375   -4.2583    0.0000 C   0  0  0  0  0  0  0  0  0  0  0  0
    2.9667   -4.8625    0.0000 C   0  0  0  0  0  0  0  0  0  0  0  0
    6.3042   -4.7042    0.0000 C   0  0  0  0  0  0  0  0  0  0  0  0
    6.9167   -5.0667    0.0000 C   0  0  0  0  0  0  0  0  0  0  0  0
    3.8292   -7.5125    0.0000 C   0  0  0  0  0  0  0  0  0  0  0  0
    3.2292   -6.4375    0.0000 C   0  0  0  0  0  0  0  0  0  0  0  0
    3.2292   -7.1500    0.0000 C   0  0  0  0  0  0  0  0  0  0  0  0
  2  1  1  0
  3  1  1  0
  4  2  2  0
  5  1  1  0
  6  3  1  0
  7  1  1  0
  8  6  1  0
  9  4  1  0
 10  2  1  0
 11  4  1  0
 12  5  1  0
 13  5  2  0
 14  8  1  0
 15  8  1  0
 16 10  2  0
 17 16  1  0
 18 12  2  0
 19 13  1  0
 20 18  1  0
 20 19  2  0
 17 11  2  0
M  END
> <chembl_id>
CHEMBL1201313

> <chembl_pref_name>
CHLOPHEDIANOL

$$$$

     RDKit          2D

 18 18  0  0  0  0  0  0  0  0999 V2000
    2.9500   -5.9250    0.0000 C   0  0  0  0  0  0  0  0  0  0  0  0
    4.7625   -6.9667    0.0000 C   0  0  0  0  0  0  0  0  0  0  0  0
    3.5625   -5.5667    0.0000 C   0  0  0  0  0  0  0  0  0  0  0  0
    2.3208   -5.5917    0.0000 C   0  0  0  0  0  0  0  0  0  0  0  0
    4.1625   -6.6417    0.0000 N   0  0  0  0  0  0  0  0  0  0  0  0
    2.9417   -6.6375    0.0000 C   0  0  0  0  0  0  0  0  0  0  0  0
    4.7792   -7.6500    0.0000 O   0  0  0  0  0  0  0  0  0  0  0  0
    3.5542   -6.9875    0.0000 C   0  0  0  0  0  0  0  0  0  0  0  0
    3.5375   -4.8292    0.0000 C   0  0  0  0  0  0  0  0  0  0  0  0
    2.3042   -4.8792    0.0000 C   0  0  0  0  0  0  0  0  0  0  0  0
    2.9375   -4.5042    0.0000 C   0  0  0  0  0  0  0  0  0  0  0  0
    5.9625   -6.9000    0.0000 N   0  0  0  0  0  0  0  0  0  0  0  0
    4.1750   -5.9167    0.0000 O   0  0  0  0  0  0  0  0  0  0  0  0
    2.3292   -7.0000    0.0000 O   0  0  0  0  0  0  0  0  0  0  0  0
    5.3500   -6.5792    0.0000 C   0  0  0  0  0  0  0  0  0  0  0  0
    1.6792   -4.5542    0.0000 O   0  0  0  0  0  0  0  0  0  0  0  0
    4.8917   -5.5667    0.0000 C   0  0  0  0  0  0  0  0  0  0  0  0
    1.1125   -4.9292    0.0000 C   0  0  0  0  0  0  0  0  0  0  0  0
  2  5  1  0
  3  1  2  0
  4  1  1  0
  5  8  1  0
  6  1  1  0
  7  2  2  0
  8  6  1  0
  9  3  1  0
 10  4  2  0
 11 10  1  0
 12 15  1  0
 13  3  1  0
 14  6  1  0
 15  2  1  0
 16 10  1  0
 17 13  1  0
 18 16  1  0
 11  9  2  0
M  END
> <chembl_id>
CHEMBL1201212

> <chembl_pref_name>
MIDODRINE

$$$$

     RDKit          2D

 21 23  0  0  0  0  0  0  0  0999 V2000
    0.8167   -8.0625    0.0000 C   0  0  0  0  0  0  0  0  0  0  0  0
    0.1417   -7.7542    0.0000 C   0  0  0  0  0  0  0  0  0  0  0  0
    1.4792   -7.7542    0.0000 C   0  0  0  0  0  0  0  0  0  0  0  0
    0.4042   -6.3250    0.0000 S   0  0  0  0  0  0  0  0  0  0  0  0
   -0.0583   -6.9792    0.0000 C   0  0  0  0  0  0  0  0  0  0  0  0
    0.8167   -8.8375    0.0000 C   0  0  0  0  0  0  0  0  0  0  0  0
    1.7000   -6.9500    0.0000 C   0  0  0  0  0  0  0  0  0  0  0  0
    1.2542   -6.3250    0.0000 C   0  0  0  0  0  0  0  0  0  0  0  0
    2.8417   -9.2375    0.0000 N   0  0  0  0  0  0  0  0  0  0  0  0
    1.5042   -9.2375    0.0000 C   0  0  0  0  0  0  0  0  0  0  0  0
    2.0375   -8.2792    0.0000 C   0  0  0  0  0  0  0  0  0  0  0  0
   -0.4208   -8.3000    0.0000 C   0  0  0  0  0  0  0  0  0  0  0  0
    2.1750   -8.8542    0.0000 C   0  0  0  0  0  0  0  0  0  0  0  0
   -0.8125   -6.7750    0.0000 C   0  0  0  0  0  0  0  0  0  0  0  0
    2.4375   -6.7542    0.0000 C   0  0  0  0  0  0  0  0  0  0  0  0
    3.5292   -8.8542    0.0000 C   0  0  0  0  0  0  0  0  0  0  0  0
    2.8417  -10.0125    0.0000 C   0  0  0  0  0  0  0  0  0  0  0  0
    2.7792   -8.0750    0.0000 C   0  0  0  0  0  0  0  0  0  0  0  0
   -1.1625   -8.0875    0.0000 C   0  0  0  0  0  0  0  0  0  0  0  0
   -1.3583   -7.3292    0.0000 C   0  0  0  0  0  0  0  0  0  0  0  0
    2.9875   -7.3167    0.0000 C   0  0  0  0  0  0  0  0  0  0  0  0
  2  1  1  0
  3  1  1  0
  4  5  1  0
  5  2  1  0
  6  1  2  0
  7  3  1  0
  8  7  1  0
  9 13  1  0
 10  6  1  0
 11  3  2  0
 12  2  2  0
 13 10  1  0
 14  5  2  0
 15  7  2  0
 16  9  1  0
 17  9  1  0
 18 11  1  0
 19 12  1  0
 20 19  2  0
 21 18  2  0
  4  8  1  0
 21 15  1  0
 20 14  1  0
M  END
> <chembl_id>
CHEMBL1492500

> <chembl_pref_name>
DOTHIEPIN

$$$$

     RDKit          2D

 21 23  0  0  0  0  0  0  0  0999 V2000
    5.4167   -5.1875    0.0000 C   0  0  0  0  0  0  0  0  0  0  0  0
    2.9667   -5.9292    0.0000 N   0  0  0  0  0  0  0  0  0  0  0  0
    4.8000   -4.8375    0.0000 O   0  0  0  0  0  0  0  0  0  0  0  0
    6.0292   -4.8167    0.0000 C   0  0  0  0  0  0  0  0  0  0  0  0
    5.4167   -5.8875    0.0000 C   0  0  0  0  0  0  0  0  0  0  0  0
    4.1917   -5.1917    0.0000 C   0  0  0  0  0  0  0  0  0  0  0  0
    3.5667   -4.8542    0.0000 C   0  0  0  0  0  0  0  0  0  0  0  0
    4.1917   -5.9042    0.0000 C   0  0  0  0  0  0  0  0  0  0  0  0
    2.9542   -5.2167    0.0000 C   0  0  0  0  0  0  0  0  0  0  0  0
    3.5792   -6.2667    0.0000 C   0  0  0  0  0  0  0  0  0  0  0  0
    2.3542   -6.2917    0.0000 C   0  0  0  0  0  0  0  0  0  0  0  0
    6.0417   -6.2375    0.0000 C   0  0  0  0  0  0  0  0  0  0  0  0
    4.8167   -6.2500    0.0000 C   0  0  0  0  0  0  0  0  0  0  0  0
    6.0167   -4.1125    0.0000 C   0  0  0  0  0  0  0  0  0  0  0  0
    6.6500   -5.1625    0.0000 C   0  0  0  0  0  0  0  0  0  0  0  0
    7.2542   -4.7917    0.0000 C   0  0  0  0  0  0  0  0  0  0  0  0
    6.0542   -6.9500    0.0000 C   0  0  0  0  0  0  0  0  0  0  0  0
    4.8292   -6.9625    0.0000 C   0  0  0  0  0  0  0  0  0  0  0  0
    6.6292   -3.7417    0.0000 C   0  0  0  0  0  0  0  0  0  0  0  0
    5.4500   -7.3125    0.0000 C   0  0  0  0  0  0  0  0  0  0  0  0
    7.2542   -4.0917    0.0000 C   0  0  0  0  0  0  0  0  0  0  0  0
  2 10  1  0
  3  1  1  0
  4  1  1  0
  5  1  1  0
  6  3  1  0
  7  6  1  0
  8  6  1  0
  9  7  1  0
 10  8  1  0
 11  2  1  0
 12  5  1  0
 13  5  2  0
 14  4  1  0
 15  4  2  0
 16 15  1  0
 17 12  2  0
 18 13  1  0
 19 14  2  0
 20 18  2  0
 21 19  1  0
 20 17  1  0
 21 16  2  0
  2  9  1  0
M  END
> <chembl_id>
CHEMBL1492

> <chembl_pref_name>
DIPHENYLPYRALINE

$$$$

     RDKit          2D

 17 19  0  0  0  0  0  0  0  0999 V2000
   -0.4096   -0.3100    0.0000 N   0  0  0  0  0  0  0  0  0  0  0  0
    0.3750   -0.5649    0.0000 C   0  0  0  0  0  0  0  0  0  0  0  0
    1.0895   -0.1524    0.0000 N   0  0  0  0  0  0  0  0  0  0  0  0
    1.8040   -0.5649    0.0000 C   0  0  0  0  0  0  0  0  0  0  0  0
    1.8040   -1.3899    0.0000 N   0  0  0  0  0  0  0  0  0  0  0  0
    1.0895   -1.8024    0.0000 C   0  0  0  0  0  0  0  0  0  0  0  0
    1.0895   -2.6274    0.0000 O   0  0  0  0  0  0  0  0  0  0  0  0
    0.3750   -1.3899    0.0000 C   0  0  0  0  0  0  0  0  0  0  0  0
   -0.4096   -1.6448    0.0000 N   0  0  0  0  0  0  0  0  0  0  0  0
   -0.8945   -0.9774    0.0000 C   0  0  0  0  0  0  0  0  0  0  0  0
   -0.4096    2.5942    0.0000 C   0  0  0  0  0  0  0  0  0  0  0  0
   -0.9616    3.2073    0.0000 O   0  0  0  0  0  0  0  0  0  0  0  0
   -0.6645    1.8095    0.0000 C   0  0  0  0  0  0  0  0  0  0  0  0
   -0.1796    1.1421    0.0000 O   0  0  0  0  0  0  0  0  0  0  0  0
   -0.6645    0.4747    0.0000 C   0  0  0  0  0  0  0  0  0  0  0  0
   -1.4492    0.7296    0.0000 C   0  0  0  0  0  0  0  0  0  0  0  0
   -1.4492    1.5546    0.0000 C   0  0  0  0  0  0  0  0  0  0  0  0
  2  1  1  0
 10  1  1  0
 15  1  1  1
  2  3  1  0
  2  8  2  0
  4  3  2  0
  4  5  1  0
  6  5  1  0
  6  7  2  0
  8  6  1  0
  8  9  1  0
 10  9  2  0
 11 12  1  0
 13 11  1  1
 13 14  1  0
 17 13  1  0
 15 14  1  0
 15 16  1  0
 16 17  1  0
M  END
> <chembl_id>
CHEMBL1460

> <chembl_pref_name>
DIDANOSINE

$$$$

     RDKit          2D

 11 11  0  0  0  0  0  0  0  0999 V2000
    8.1667   -1.5792    0.0000 C   0  0  0  0  0  0  0  0  0  0  0  0
    7.5542   -1.2250    0.0000 C   0  0  0  0  0  0  0  0  0  0  0  0
    8.7792   -1.2167    0.0000 N   0  0  0  0  0  0  0  0  0  0  0  0
    6.9417   -1.5792    0.0000 C   0  0  0  0  0  0  0  0  0  0  0  0
    7.8167   -2.1917    0.0000 C   0  0  0  0  0  0  0  0  0  0  0  0
    8.5250   -2.1917    0.0000 C   0  0  0  0  0  0  0  0  0  0  0  0
    6.9417   -2.2917    0.0000 C   0  0  0  0  0  0  0  0  0  0  0  0
    6.3292   -1.2292    0.0000 C   0  0  0  0  0  0  0  0  0  0  0  0
    6.3292   -2.6500    0.0000 C   0  0  0  0  0  0  0  0  0  0  0  0
    5.7167   -1.5792    0.0000 C   0  0  0  0  0  0  0  0  0  0  0  0
    5.7167   -2.2917    0.0000 C   0  0  0  0  0  0  0  0  0  0  0  0
  2  1  1  0
  3  1  1  0
  4  2  1  0
  5  1  1  0
  6  1  1  0
  7  4  1  0
  8  4  2  0
  9  7  2  0
 10  8  1  0
 11 10  2  0
  9 11  1  0
M  END
> <chembl_id>
CHEMBL1574

> <chembl_pref_name>
PHENTERMINE

$$$$

     RDKit          2D

 12 12  0  0  0  0  0  0  0  0999 V2000
    2.1434    2.0625    0.0000 O   0  0  0  0  0  0  0  0  0  0  0  0
    2.1434    1.2375    0.0000 C   0  0  0  0  0  0  0  0  0  0  0  0
    1.4289    0.8250    0.0000 C   0  0  0  0  0  0  0  0  0  0  0  0
    1.4289    0.0000    0.0000 O   0  0  0  0  0  0  0  0  0  0  0  0
    0.7145   -0.4125    0.0000 C   0  0  0  0  0  0  0  0  0  0  0  0
    0.7145   -1.2375    0.0000 O   0  0  0  0  0  0  0  0  0  0  0  0
    0.0000    0.0000    0.0000 C   0  0  0  0  0  0  0  0  0  0  0  0
   -0.7145   -0.4125    0.0000 O   0  0  0  0  0  0  0  0  0  0  0  0
    0.0000    0.8250    0.0000 C   0  0  0  0  0  0  0  0  0  0  0  0
   -0.7145    1.2375    0.0000 O   0  0  0  0  0  0  0  0  0  0  0  0
    0.7145    1.2375    0.0000 C   0  0  0  0  0  0  0  0  0  0  0  0
    0.7145    2.0625    0.0000 O   0  0  0  0  0  0  0  0  0  0  0  0
  1  2  1  0
  3  2  1  1
  3  4  1  0
  4  5  1  0
  5  6  1  0
  5  7  1  0
  7  8  1  6
  7  9  1  0
  9 10  1  1
  9 11  1  0
  3 11  1  0
 11 12  1  6
M  END
> <chembl_id>
CHEMBL1222250

> <chembl_pref_name>
DEXTROSE

$$$$

     RDKit          2D

 11  9  0  0  0  0  0  0  0  0999 V2000
    0.0250    2.5208    0.0000 K   0  0  0  0  0 15  0  0  0  0  0  0
   -0.5125   -1.2167    0.0000 C   0  0  0  0  0  0  0  0  0  0  0  0
    0.5917   -0.3250    0.0000 C   0  0  0  0  0  0  0  0  0  0  0  0
   -1.8458   -0.6875    0.0000 C   0  0  0  0  0  0  0  0  0  0  0  0
    1.9292   -0.8542    0.0000 C   0  0  0  0  0  0  0  0  0  0  0  0
   -2.9833   -1.5750    0.0000 O   0  0  0  0  0  0  0  0  0  0  0  0
   -2.0500    0.7333    0.0000 O   0  0  0  0  0  0  0  0  0  0  0  0
    3.0542    0.0208    0.0000 O   0  0  0  0  0  0  0  0  0  0  0  0
   -0.3083   -2.6375    0.0000 O   0  0  0  0  0  0  0  0  0  0  0  0
    0.3917    1.0833    0.0000 O   0  0  0  0  0  0  0  0  0  0  0  0
    2.1292   -2.2792    0.0000 O   0  0  0  0  0  0  0  0  0  0  0  0
  3  2  1  0
  4  2  1  0
  5  3  1  0
  6  4  1  0
  7  4  2  0
  8  5  2  0
  2  9  1  1
  3 10  1  1
 11  5  1  0
M  CHG  2   1   1   6  -1
M  END
> <chembl_id>
CHEMBL2105248

> <chembl_pref_name>
POTASSIUM BITARTRATE

$$$$

     RDKit          2D

 13 13  0  0  0  0  0  0  0  0999 V2000
   -1.3802   -1.2712    0.0000 N   0  0  0  0  0  0  0  0  0  0  0  0
   -2.0477   -0.7864    0.0000 C   0  0  0  0  0  0  0  0  0  0  0  0
   -1.7928   -0.0019    0.0000 N   0  0  0  0  0  0  0  0  0  0  0  0
   -0.9679   -0.0019    0.0000 C   0  0  0  0  0  0  0  0  0  0  0  0
   -0.7129   -0.7864    0.0000 C   0  0  0  0  0  0  0  0  0  0  0  0
    0.0839   -1.0000    0.0000 N   0  0  0  0  0  0  0  0  0  0  0  0
    0.6673   -0.4165    0.0000 N   0  0  0  0  0  0  0  0  0  0  0  0
    1.4642   -0.6301    0.0000 N   0  0  0  0  0  0  0  0  0  0  0  0
    2.0477   -0.0467    0.0000 C   0  0  0  0  0  0  0  0  0  0  0  0
    1.6778   -1.4271    0.0000 C   0  0  0  0  0  0  0  0  0  0  0  0
   -0.5553    0.7126    0.0000 C   0  0  0  0  0  0  0  0  0  0  0  0
   -0.9679    1.4271    0.0000 O   0  0  0  0  0  0  0  0  0  0  0  0
    0.2697    0.7126    0.0000 N   0  0  0  0  0  0  0  0  0  0  0  0
  1  2  1  0
  2  3  2  0
  3  4  1  0
  4  5  2  0
  5  1  1  0
  5  6  1  0
  6  7  2  0
  7  8  1  0
  8  9  1  0
  8 10  1  0
  4 11  1  0
 11 12  2  0
 11 13  1  0
M  END
> <chembl_id>
CHEMBL476

> <chembl_pref_name>
DACARBAZINE

$$$$

     RDKit          2D

 22 24  0  0  0  0  0  0  0  0999 V2000
   -1.2958    0.1583    0.0000 C   0  0  0  0  0  0  0  0  0  0  0  0
   -0.3750    0.6083    0.0000 C   0  0  0  0  0  0  0  0  0  0  0  0
   -2.2375    0.6083    0.0000 C   0  0  0  0  0  0  0  0  0  0  0  0
   -1.2958   -0.9375    0.0000 C   0  0  0  0  0  0  0  0  0  0  0  0
   -0.0833    1.7083    0.0000 C   0  0  0  0  0  0  0  0  0  0  0  0
   -2.5208    1.6708    0.0000 C   0  0  0  0  0  0  0  0  0  0  0  0
   -0.6958    2.5833    0.0000 C   0  0  0  0  0  0  0  0  0  0  0  0
   -1.8708    2.5833    0.0000 C   0  0  0  0  0  0  0  0  0  0  0  0
    1.5542   -1.4917    0.0000 N   0  0  0  0  0  0  0  0  0  0  0  0
   -0.3333   -1.4917    0.0000 C   0  0  0  0  0  0  0  0  0  0  0  0
    0.6125   -0.9375    0.0000 C   0  0  0  0  0  0  0  0  0  0  0  0
   -3.0083   -0.1542    0.0000 C   0  0  0  0  0  0  0  0  0  0  0  0
    0.3917   -0.1292    0.0000 C   0  0  0  0  0  0  0  0  0  0  0  0
    0.9542    1.9708    0.0000 C   0  0  0  0  0  0  0  0  0  0  0  0
   -3.5625    1.9583    0.0000 C   0  0  0  0  0  0  0  0  0  0  0  0
    1.5542   -2.5792    0.0000 C   0  0  0  0  0  0  0  0  0  0  0  0
    2.5000   -0.9375    0.0000 C   0  0  0  0  0  0  0  0  0  0  0  0
   -0.3333   -2.5667    0.0000 C   0  0  0  0  0  0  0  0  0  0  0  0
   -4.0708    0.1250    0.0000 C   0  0  0  0  0  0  0  0  0  0  0  0
    1.4417    0.1458    0.0000 C   0  0  0  0  0  0  0  0  0  0  0  0
   -4.3458    1.1833    0.0000 C   0  0  0  0  0  0  0  0  0  0  0  0
    1.7375    1.2000    0.0000 C   0  0  0  0  0  0  0  0  0  0  0  0
  2  1  1  0
  3  1  1  0
  4  1  1  0
  5  2  1  0
  6  3  1  0
  7  5  1  0
  8  6  1  0
  9 11  1  0
 10  4  1  0
 11 10  1  0
 12  3  2  0
 13  2  2  0
 14  5  2  0
 15  6  2  0
 16  9  1  0
 17  9  1  0
 18 10  1  0
 19 12  1  0
 20 13  1  0
 21 19  2  0
 22 20  2  0
  7  8  1  0
 15 21  1  0
 14 22  1  0
M  END
> <chembl_id>
CHEMBL2110816

> <chembl_pref_name>
BUTRIPTYLINE

$$$$

     RDKit          2D

 13 13  0  0  0  0  0  0  0  0999 V2000
    2.5667   -1.1667    0.0000 C   0  0  0  0  0  0  0  0  0  0  0  0
    1.1167   -1.1667    0.0000 N   0  0  0  0  0  0  0  0  0  0  0  0
    3.2667    0.0500    0.0000 C   0  0  0  0  0  0  0  0  0  0  0  0
    3.2667   -2.4125    0.0000 O   0  0  0  0  0  0  0  0  0  0  0  0
    0.4167    0.0500    0.0000 C   0  0  0  0  0  0  0  0  0  0  0  0
    3.3000    2.5458    0.0000 Cl  0  0  0  0  0  0  0  0  0  0  0  0
   -1.0083    0.0500    0.0000 C   0  0  0  0  0  0  0  0  0  0  0  0
    2.5667    1.3208    0.0000 C   0  0  0  0  0  0  0  0  0  0  0  0
   -1.7333    1.3208    0.0000 C   0  0  0  0  0  0  0  0  0  0  0  0
   -1.7333   -1.1667    0.0000 C   0  0  0  0  0  0  0  0  0  0  0  0
   -3.1833   -1.1667    0.0000 C   0  0  0  0  0  0  0  0  0  0  0  0
   -3.1583    1.3208    0.0000 C   0  0  0  0  0  0  0  0  0  0  0  0
   -3.8833    0.0500    0.0000 C   0  0  0  0  0  0  0  0  0  0  0  0
  2  1  1  0
  3  1  1  0
  4  1  2  0
  5  2  1  0
  6  8  1  0
  7  5  1  0
  8  3  1  0
  9  7  1  0
 10  7  2  0
 11 10  1  0
 12  9  2  0
 13 11  2  0
 12 13  1  0
M  END
> <chembl_id>
CHEMBL64195

> <chembl_pref_name>
BECLAMIDE

$$$$

     RDKit          2D

 25 28  0  0  1  0  0  0  0  0999 V2000
    4.3208   -5.3750    0.0000 C   0  0  0  0  0  0  0  0  0  0  0  0
    4.3167   -6.0833    0.0000 C   0  0  0  0  0  0  0  0  0  0  0  0
    3.6958   -6.4375    0.0000 C   0  0  0  0  0  0  0  0  0  0  0  0
    3.0833   -6.0792    0.0000 C   0  0  0  0  0  0  0  0  0  0  0  0
    2.4708   -6.4375    0.0000 C   0  0  0  0  0  0  0  0  0  0  0  0
    4.9958   -5.1625    0.0000 C   0  0  0  0  0  0  0  0  0  0  0  0
    2.4708   -7.1500    0.0000 C   0  0  0  0  0  0  0  0  0  0  0  0
    5.6042   -4.8042    0.0000 C   0  0  0  0  0  0  0  0  0  0  0  0
    3.7042   -5.0167    0.0000 C   0  0  0  0  0  0  0  0  0  0  0  0
    3.0833   -5.3667    0.0000 C   0  0  0  0  0  0  0  0  0  0  0  0
    4.9875   -6.3083    0.0000 C   0  0  0  0  0  0  0  0  0  0  0  0
    3.7000   -7.1500    0.0000 C   0  0  0  0  0  0  0  0  0  0  0  0
    6.2167   -4.4417    0.0000 C   0  0  0  0  0  0  0  0  0  0  0  0
    1.8583   -6.0833    0.0000 C   0  0  0  0  0  0  0  0  0  0  0  0
    3.0833   -7.5042    0.0000 C   0  0  0  0  0  0  0  0  0  0  0  0
    5.4083   -5.7375    0.0000 C   0  0  0  0  0  0  0  0  0  0  0  0
    1.8583   -7.5042    0.0000 C   0  0  0  0  0  0  0  0  0  0  0  0
    1.2458   -7.1500    0.0000 C   0  0  0  0  0  0  0  0  0  0  0  0
    4.9917   -4.4542    0.0000 O   0  0  0  0  0  0  0  0  0  0  0  0
    1.2458   -6.4375    0.0000 C   0  0  0  0  0  0  0  0  0  0  0  0
    4.3167   -4.6667    0.0000 C   0  0  0  0  0  0  0  0  0  0  0  0
    0.6333   -7.5042    0.0000 O   0  0  0  0  0  0  0  0  0  0  0  0
    3.0792   -6.7875    0.0000 H   0  0  0  0  0  0  0  0  0  0  0  0
    4.3125   -6.7917    0.0000 H   0  0  0  0  0  0  0  0  0  0  0  0
    3.6917   -5.7292    0.0000 H   0  0  0  0  0  0  0  0  0  0  0  0
  2  1  1  0
  3  2  1  0
  4  3  1  0
  5  4  1  0
  6  1  1  0
  7  5  1  0
  8  6  1  0
  9  1  1  0
 10  9  1  0
 11  2  1  0
 12  3  1  0
 13  8  3  0
 14  5  2  0
 15 12  1  0
 16  6  1  0
 17  7  2  0
 18 17  1  0
  6 19  1  1
 20 14  1  0
  1 21  1  1
 22 18  1  0
  4 23  1  6
  2 24  1  6
  3 25  1  1
 16 11  1  0
 10  4  1  0
 15  7  1  0
 18 20  2  0
M  END
> <chembl_id>
CHEMBL691

> <chembl_pref_name>
ETHINYL ESTRADIOL

$$$$

     RDKit          2D

 13 13  0  0  0  0  0  0  0  0999 V2000
    1.4917   -4.5083    0.0000 C   0  0  0  0  0  0  0  0  0  0  0  0
   -0.3458   -5.5917    0.0000 N   0  0  0  0  0  0  0  0  0  0  0  0
    0.8917   -4.1625    0.0000 O   0  0  0  0  0  0  0  0  0  0  0  0
    2.1167   -4.1667    0.0000 N   0  0  0  0  0  0  0  0  0  0  0  0
    1.5000   -5.2042    0.0000 O   0  0  0  0  0  0  0  0  0  0  0  0
    0.2750   -5.2292    0.0000 C   0  0  0  0  0  0  0  0  0  0  0  0
    0.2750   -4.5167    0.0000 C   0  0  0  0  0  0  0  0  0  0  0  0
   -0.9583   -5.2292    0.0000 C   0  0  0  0  0  0  0  0  0  0  0  0
   -0.3458   -6.3000    0.0000 C   0  0  0  0  0  0  0  0  0  0  0  0
   -0.9583   -4.5167    0.0000 C   0  0  0  0  0  0  0  0  0  0  0  0
    2.7167   -4.5417    0.0000 C   0  0  0  0  0  0  0  0  0  0  0  0
    2.1292   -3.4625    0.0000 C   0  0  0  0  0  0  0  0  0  0  0  0
   -0.3458   -4.1625    0.0000 C   0  0  0  0  0  0  0  0  0  0  0  0
  2  6  1  0
  3  1  1  0
  4  1  1  0
  5  1  2  0
  6  7  2  0
  7  3  1  0
  8 10  1  0
  9  2  1  0
 10 13  2  0
 11  4  1  0
 12  4  1  0
 13  7  1  0
  8  2  2  0
M  CHG  1   2   1
M  END
> <chembl_id>
CHEMBL1115

> <chembl_pref_name>
PYRIDOSTIGMINE

$$$$

     RDKit          2D

 14 15  0  0  0  0  0  0  0  0999 V2000
    0.7042    0.1750    0.0000 N   0  0  0  0  0  0  0  0  0  0  0  0
    1.4167   -1.0542    0.0000 C   0  0  0  0  0  0  0  0  0  0  0  0
    1.4167    1.4125    0.0000 C   0  0  0  0  0  0  0  0  0  0  0  0
    2.8542   -1.0542    0.0000 C   0  0  0  0  0  0  0  0  0  0  0  0
    2.8542    1.4125    0.0000 C   0  0  0  0  0  0  0  0  0  0  0  0
    3.5792    0.1750    0.0000 C   0  0  0  0  0  0  0  0  0  0  0  0
   -0.7083    0.1750    0.0000 C   0  0  0  0  0  0  0  0  0  0  0  0
    0.7042   -2.3000    0.0000 O   0  0  0  0  0  0  0  0  0  0  0  0
    3.5625    2.6583    0.0000 C   0  0  0  0  0  0  0  0  0  0  0  0
   -1.4250    1.4125    0.0000 C   0  0  0  0  0  0  0  0  0  0  0  0
   -1.4250   -1.0542    0.0000 C   0  0  0  0  0  0  0  0  0  0  0  0
   -2.8625   -1.0542    0.0000 C   0  0  0  0  0  0  0  0  0  0  0  0
   -2.8625    1.4125    0.0000 C   0  0  0  0  0  0  0  0  0  0  0  0
   -3.5875    0.1750    0.0000 C   0  0  0  0  0  0  0  0  0  0  0  0
  2  1  1  0
  3  1  1  0
  4  2  1  0
  5  3  2  0
  6  5  1  0
  7  1  1  0
  8  2  2  0
  9  5  1  0
 10  7  2  0
 11  7  1  0
 12 11  2  0
 13 10  1  0
 14 12  1  0
  4  6  2  0
 13 14  2  0
M  END
> <chembl_id>
CHEMBL1256391

> <chembl_pref_name>
PIRFENIDONE

$$$$

     RDKit          2D

 24 27  0  0  1  0  0  0  0  0999 V2000
    1.5000    1.0708    0.0000 C   0  0  0  0  0  0  0  0  0  0  0  0
    1.5000   -0.0500    0.0000 C   0  0  0  0  0  0  0  0  0  0  0  0
    0.5542   -0.6000    0.0000 C   0  0  0  0  0  0  0  0  0  0  0  0
   -0.4000   -0.0500    0.0000 C   0  0  0  0  0  0  0  0  0  0  0  0
   -1.3625   -0.6000    0.0000 C   0  0  0  0  0  0  0  0  0  0  0  0
    2.5417    1.3708    0.0000 C   0  0  0  0  0  0  0  0  0  0  0  0
    2.5417   -0.3917    0.0000 C   0  0  0  0  0  0  0  0  0  0  0  0
   -1.3625   -1.6792    0.0000 C   0  0  0  0  0  0  0  0  0  0  0  0
    3.1792    0.5125    0.0000 C   0  0  0  0  0  0  0  0  0  0  0  0
    0.5542    1.5958    0.0000 C   0  0  0  0  0  0  0  0  0  0  0  0
   -0.4000    1.0708    0.0000 C   0  0  0  0  0  0  0  0  0  0  0  0
    0.5542   -1.6792    0.0000 C   0  0  0  0  0  0  0  0  0  0  0  0
   -2.3083   -0.0500    0.0000 C   0  0  0  0  0  0  0  0  0  0  0  0
   -0.4000   -2.2292    0.0000 C   0  0  0  0  0  0  0  0  0  0  0  0
   -2.3083   -2.2292    0.0000 C   0  0  0  0  0  0  0  0  0  0  0  0
   -3.2458   -1.6792    0.0000 C   0  0  0  0  0  0  0  0  0  0  0  0
    2.6542    2.2833    0.0000 O   0  0  0  0  0  0  0  0  0  0  0  0
   -3.2458   -0.6000    0.0000 C   0  0  0  0  0  0  0  0  0  0  0  0
    1.5000    2.0833    0.0000 C   0  0  0  0  0  0  0  0  0  0  0  0
    4.2625    0.5208    0.0000 O   0  0  0  0  0  0  0  0  0  0  0  0
   -4.2083   -2.2042    0.0000 O   0  0  0  0  0  0  0  0  0  0  0  0
    1.5000   -1.0667    0.0000 H   0  0  0  0  0  0  0  0  0  0  0  0
    0.5542    0.4958    0.0000 H   0  0  0  0  0  0  0  0  0  0  0  0
   -0.4125   -1.0667    0.0000 H   0  0  0  0  0  0  0  0  0  0  0  0
  2  1  1  0
  3  2  1  0
  4 11  1  0
  5  4  1  0
  6  1  1  0
  7  2  1  0
  8  5  2  0
  9  6  1  0
 10  1  1  0
 11 10  1  0
 12  3  1  0
 13  5  1  0
 14 12  1  0
 15  8  1  0
 16 18  1  0
  6 17  1  1
 18 13  2  0
  1 19  1  1
  9 20  1  6
 21 16  1  0
  2 22  1  6
  3 23  1  1
  4 24  1  6
  7  9  1  0
  3  4  1  0
 14  8  1  0
 15 16  2  0
M  END
> <chembl_id>
CHEMBL193482

> <chembl_pref_name>
ESTRIOL

$$$$

     RDKit          2D

 21 24  0  0  0  0  0  0  0  0999 V2000
    0.8222   -9.2820    0.0000 C   0  0  0  0  0  0  0  0  0  0  0  0
    0.9743  -10.0929    0.0000 C   0  0  0  0  0  0  0  0  0  0  0  0
    1.7348  -10.4127    0.0000 N   0  0  0  0  0  0  0  0  0  0  0  0
    1.6656  -11.2348    0.0000 N   0  0  0  0  0  0  0  0  0  0  0  0
    0.8624  -11.4231    0.0000 C   0  0  0  0  0  0  0  0  0  0  0  0
    0.4351  -10.7173    0.0000 N   0  0  0  0  0  0  0  0  0  0  0  0
   -0.3893  -10.6851    0.0000 C   0  0  0  0  0  0  0  0  0  0  0  0
   -0.8781  -10.0205    0.0000 C   0  0  0  0  0  0  0  0  0  0  0  0
   -1.6980  -10.1116    0.0000 C   0  0  0  0  0  0  0  0  0  0  0  0
   -2.0292  -10.8672    0.0000 C   0  0  0  0  0  0  0  0  0  0  0  0
   -1.5404  -11.5318    0.0000 C   0  0  0  0  0  0  0  0  0  0  0  0
   -0.7204  -11.4408    0.0000 C   0  0  0  0  0  0  0  0  0  0  0  0
   -2.8491  -10.9582    0.0000 Cl  0  0  0  0  0  0  0  0  0  0  0  0
   -0.6632   -9.2240    0.0000 C   0  0  0  0  0  0  0  0  0  0  0  0
    0.0935   -8.8953    0.0000 N   0  0  0  0  0  0  0  0  0  0  0  0
   -1.2877   -8.6848    0.0000 C   0  0  0  0  0  0  0  0  0  0  0  0
   -2.0668   -8.9560    0.0000 C   0  0  0  0  0  0  0  0  0  0  0  0
   -2.6913   -8.4169    0.0000 C   0  0  0  0  0  0  0  0  0  0  0  0
   -2.5366   -7.6065    0.0000 C   0  0  0  0  0  0  0  0  0  0  0  0
   -1.7574   -7.3353    0.0000 C   0  0  0  0  0  0  0  0  0  0  0  0
   -1.1330   -7.8745    0.0000 C   0  0  0  0  0  0  0  0  0  0  0  0
  1  2  1  0
  2  3  2  0
  3  4  1  0
  4  5  2  0
  5  6  1  0
  2  6  1  0
  6  7  1  0
  7  8  2  0
  8  9  1  0
  9 10  2  0
 10 11  1  0
 11 12  2  0
  7 12  1  0
 10 13  1  0
  8 14  1  0
 14 15  2  0
  1 15  1  0
 14 16  1  0
 16 17  2  0
 17 18  1  0
 18 19  2  0
 19 20  1  0
 20 21  2  0
 16 21  1  0
M  END
> <chembl_id>
CHEMBL285674

> <chembl_pref_name>
ESTAZOLAM

$$$$

     RDKit          2D

 19 20  0  0  0  0  0  0  0  0999 V2000
    1.8042    0.4208    0.0000 C   0  0  0  0  0  0  0  0  0  0  0  0
   -0.1875    0.4625    0.0000 C   0  0  0  0  0  0  0  0  0  0  0  0
    0.8167    1.0208    0.0000 C   0  0  0  0  0  0  0  0  0  0  0  0
   -2.1833    0.4958    0.0000 N   0  0  0  0  0  0  0  0  0  0  0  0
   -1.1833    1.0583    0.0000 C   0  0  0  0  0  0  0  0  0  0  0  0
    1.7792   -0.7292    0.0000 C   0  0  0  0  0  0  0  0  0  0  0  0
   -0.2125   -0.6917    0.0000 C   0  0  0  0  0  0  0  0  0  0  0  0
   -4.2083   -0.6167    0.0000 N   0  0  0  0  0  0  0  0  0  0  0  0
    0.7792   -1.2792    0.0000 C   0  0  0  0  0  0  0  0  0  0  0  0
    2.8125    0.9833    0.0000 O   0  0  0  0  0  0  0  0  0  0  0  0
    0.8375    2.1708    0.0000 O   0  0  0  0  0  0  0  0  0  0  0  0
    2.7667   -1.3167    0.0000 O   0  0  0  0  0  0  0  0  0  0  0  0
   -2.2083   -0.6542    0.0000 C   0  0  0  0  0  0  0  0  0  0  0  0
   -3.1708    1.0958    0.0000 C   0  0  0  0  0  0  0  0  0  0  0  0
   -4.1833    0.5333    0.0000 C   0  0  0  0  0  0  0  0  0  0  0  0
   -3.2125   -1.2125    0.0000 C   0  0  0  0  0  0  0  0  0  0  0  0
    3.8000    0.3875    0.0000 C   0  0  0  0  0  0  0  0  0  0  0  0
    1.8417    2.7250    0.0000 C   0  0  0  0  0  0  0  0  0  0  0  0
    2.7500   -2.4750    0.0000 C   0  0  0  0  0  0  0  0  0  0  0  0
  2  3  2  0
  3  1  1  0
  4  5  1  0
  5  2  1  0
  6  1  2  0
  7  9  2  0
  8 15  1  0
  9  6  1  0
 10  1  1  0
 11  3  1  0
 12  6  1  0
 13  4  1  0
 14  4  1  0
 15 14  1  0
 16 13  1  0
 17 10  1  0
 18 11  1  0
 19 12  1  0
  2  7  1  0
 16  8  1  0
M  END
> <chembl_id>
CHEMBL203266

> <chembl_pref_name>
TRIMETAZIDINE

$$$$

     RDKit          2D

  7  6  0  0  0  0  0  0  0  0999 V2000
   -0.5833   -0.3792    0.0000 C   0  0  0  0  0  0  0  0  0  0  0  0
    0.6625    0.3333    0.0000 C   0  0  0  0  0  0  0  0  0  0  0  0
   -1.8208    0.3333    0.0000 Cl  0  0  0  0  0  0  0  0  0  0  0  0
   -1.2083   -1.6667    0.0000 Cl  0  0  0  0  0  0  0  0  0  0  0  0
    0.1125   -1.6292    0.0000 Cl  0  0  0  0  0  0  0  0  0  0  0  0
    0.6625    1.7708    0.0000 O   0  0  0  0  0  0  0  0  0  0  0  0
    1.9000   -0.3792    0.0000 O   0  0  0  0  0  0  0  0  0  0  0  0
  2  1  1  0
  3  1  1  0
  4  1  1  0
  5  1  1  0
  6  2  1  0
  7  2  1  0
M  END
> <chembl_id>
CHEMBL455917

> <chembl_pref_name>
CHLORAL HYDRATE

$$$$

     RDKit          2D

 19 21  0  0  0  0  0  0  0  0999 V2000
    1.1250   -1.7125    0.0000 N   0  0  0  0  0  0  0  0  0  0  0  0
    0.7292   -1.1292    0.0000 C   0  0  0  0  0  0  0  0  0  0  0  0
    0.7292   -2.2667    0.0000 C   0  0  0  0  0  0  0  0  0  0  0  0
    2.1750   -2.3292    0.0000 C   0  0  0  0  0  0  0  0  0  0  0  0
    2.8792   -2.3167    0.0000 N   0  0  0  0  0  0  0  0  0  0  0  0
    1.8292   -1.7042    0.0000 C   0  0  0  0  0  0  0  0  0  0  0  0
    0.0417   -2.0625    0.0000 C   0  0  0  0  0  0  0  0  0  0  0  0
    0.0417   -1.3375    0.0000 C   0  0  0  0  0  0  0  0  0  0  0  0
    3.2417   -1.7125    0.0000 C   0  0  0  0  0  0  0  0  0  0  0  0
    0.9542   -0.4417    0.0000 O   0  0  0  0  0  0  0  0  0  0  0  0
    0.9542   -2.9542    0.0000 O   0  0  0  0  0  0  0  0  0  0  0  0
    2.1917   -1.0792    0.0000 C   0  0  0  0  0  0  0  0  0  0  0  0
    1.8125   -2.9417    0.0000 O   0  0  0  0  0  0  0  0  0  0  0  0
    3.9500   -1.7417    0.0000 O   0  0  0  0  0  0  0  0  0  0  0  0
    2.9000   -1.0917    0.0000 C   0  0  0  0  0  0  0  0  0  0  0  0
   -0.5625   -0.9792    0.0000 C   0  0  0  0  0  0  0  0  0  0  0  0
   -0.5625   -2.4167    0.0000 C   0  0  0  0  0  0  0  0  0  0  0  0
   -1.1625   -2.0625    0.0000 C   0  0  0  0  0  0  0  0  0  0  0  0
   -1.1625   -1.3375    0.0000 C   0  0  0  0  0  0  0  0  0  0  0  0
  2  1  1  0
  3  1  1  0
  4  6  1  0
  5  4  1  0
  6  1  1  0
  7  3  1  0
  8  2  1  0
  9 15  1  0
 10  2  2  0
 11  3  2  0
 12  6  1  0
 13  4  2  0
 14  9  2  0
 15 12  1  0
 16  8  1  0
 17  7  1  0
 18 17  2  0
 19 16  2  0
  7  8  2  0
  9  5  1  0
 18 19  1  0
M  END
> <chembl_id>
CHEMBL468

> <chembl_pref_name>
THALIDOMIDE

$$$$

     RDKit          2D

 17 18  0  0  0  0  0  0  0  0999 V2000
    8.6750   -3.6917    0.0000 S   0  0  0  0  0  0  0  0  0  0  0  0
    9.2875   -3.3333    0.0000 N   0  0  0  0  0  0  0  0  0  0  0  0
    8.0583   -3.3375    0.0000 C   0  0  0  0  0  0  0  0  0  0  0  0
    9.9000   -3.6875    0.0000 C   0  0  0  0  0  0  0  0  0  0  0  0
    9.0250   -4.3042    0.0000 O   0  0  0  0  0  0  0  0  0  0  0  0
    8.3167   -4.3042    0.0000 O   0  0  0  0  0  0  0  0  0  0  0  0
   10.5083   -3.3292    0.0000 N   0  0  0  0  0  0  0  0  0  0  0  0
    7.4458   -3.6917    0.0000 C   0  0  0  0  0  0  0  0  0  0  0  0
    8.0583   -2.6250    0.0000 C   0  0  0  0  0  0  0  0  0  0  0  0
    6.8333   -2.6250    0.0000 C   0  0  0  0  0  0  0  0  0  0  0  0
    6.2208   -2.2708    0.0000 N   0  0  0  0  0  0  0  0  0  0  0  0
    7.4458   -2.2708    0.0000 C   0  0  0  0  0  0  0  0  0  0  0  0
    6.8333   -3.3375    0.0000 C   0  0  0  0  0  0  0  0  0  0  0  0
   11.1250   -3.6792    0.0000 C   0  0  0  0  0  0  0  0  0  0  0  0
    9.9000   -4.3958    0.0000 C   0  0  0  0  0  0  0  0  0  0  0  0
   11.1292   -4.3917    0.0000 C   0  0  0  0  0  0  0  0  0  0  0  0
   10.5167   -4.7458    0.0000 C   0  0  0  0  0  0  0  0  0  0  0  0
  2  1  1  0
  3  1  1  0
  4  2  1  0
  5  1  2  0
  6  1  2  0
  7  4  1  0
  8  3  2  0
  9  3  1  0
 10 13  2  0
 11 10  1  0
 12  9  2  0
 13  8  1  0
 14  7  2  0
 15  4  2  0
 16 14  1  0
 17 15  1  0
 10 12  1  0
 16 17  2  0
M  END
> <chembl_id>
CHEMBL700

> <chembl_pref_name>
SULFAPYRIDINE

$$$$

     RDKit          2D

  3  0  0  0  0  0  0  0  0  0999 V2000
    3.6500   -3.2167    0.0000 Sr  0  0  0  0  0 15  0  0  0  0  0  0
    2.4000   -3.2167    0.0000 Cl  0  0  0  0  0  0  0  0  0  0  0  0
    4.8542   -3.2167    0.0000 Cl  0  0  0  0  0  0  0  0  0  0  0  0
M  CHG  3   1   2   2  -1   3  -1
M  END
> <chembl_id>
CHEMBL2219640

> <chembl_pref_name>
STRONTIUM CHLORIDE

$$$$

     RDKit          2D

  3  0  0  0  0  0  0  0  0  0999 V2000
    0.2792   -3.5875    0.0000 Mg  0  0  0  0  0 15  0  0  0  0  0  0
   -0.7500   -3.5875    0.0000 Cl  0  0  0  0  0  0  0  0  0  0  0  0
    1.4667   -3.6167    0.0000 Cl  0  0  0  0  0  0  0  0  0  0  0  0
M  CHG  3   1   2   2  -1   3  -1
M  END
> <chembl_id>
CHEMBL2219642

> <chembl_pref_name>
MAGNESIUM CHLORIDE

$$$$

     RDKit          2D

 20 21  0  0  0  0  0  0  0  0999 V2000
    6.8042   -4.4292    0.0000 C   0  0  0  0  0  0  0  0  0  0  0  0
    8.0500   -4.4292    0.0000 N   0  0  0  0  0  0  0  0  0  0  0  0
    6.1917   -4.0917    0.0000 C   0  0  0  0  0  0  0  0  0  0  0  0
    7.4292   -4.0917    0.0000 C   0  0  0  0  0  0  0  0  0  0  0  0
    5.5875   -4.4417    0.0000 C   0  0  0  0  0  0  0  0  0  0  0  0
    6.1917   -3.3750    0.0000 C   0  0  0  0  0  0  0  0  0  0  0  0
    4.9625   -3.3792    0.0000 C   0  0  0  0  0  0  0  0  0  0  0  0
    5.5875   -6.5667    0.0000 N   0  0  0  0  0  0  0  0  0  0  0  0
    6.8167   -5.1417    0.0000 O   0  0  0  0  0  0  0  0  0  0  0  0
    5.5792   -3.0250    0.0000 C   0  0  0  0  0  0  0  0  0  0  0  0
    4.9667   -4.0917    0.0000 C   0  0  0  0  0  0  0  0  0  0  0  0
    4.3625   -3.0250    0.0000 Cl  0  0  0  0  0  0  0  0  0  0  0  0
    6.1917   -5.5042    0.0000 C   0  0  0  0  0  0  0  0  0  0  0  0
    8.6667   -4.0667    0.0000 C   0  0  0  0  0  0  0  0  0  0  0  0
    6.2000   -6.2167    0.0000 C   0  0  0  0  0  0  0  0  0  0  0  0
    7.4292   -3.3792    0.0000 C   0  0  0  0  0  0  0  0  0  0  0  0
    4.9542   -6.2625    0.0000 C   0  0  0  0  0  0  0  0  0  0  0  0
    5.5792   -7.2792    0.0000 C   0  0  0  0  0  0  0  0  0  0  0  0
    8.6667   -3.3750    0.0000 C   0  0  0  0  0  0  0  0  0  0  0  0
    8.0500   -3.0167    0.0000 C   0  0  0  0  0  0  0  0  0  0  0  0
  2  4  2  0
  3  1  1  0
  4  1  1  0
  5  3  1  0
  6  3  2  0
  7 10  2  0
  8 15  1  0
  9  1  1  0
 10  6  1  0
 11  5  2  0
 12  7  1  0
 13  9  1  0
 14  2  1  0
 15 13  1  0
 16  4  1  0
 17  8  1  0
 18  8  1  0
 19 20  1  0
 20 16  2  0
  7 11  1  0
 19 14  2  0
M  END
> <chembl_id>
CHEMBL864

> <chembl_pref_name>
CARBINOXAMINE

$$$$

     RDKit          2D

 11  9  0  0  0  0  0  0  0  0999 V2000
   14.8194   -8.3510    0.0000 Na  0  0  0  0  0 15  0  0  0  0  0  0
   14.0080   -9.7414    0.0000 C   0  0  0  0  0  0  0  0  0  0  0  0
   14.7192   -9.3311    0.0000 O   0  0  0  0  0  0  0  0  0  0  0  0
   13.2923   -9.3311    0.0000 O   0  0  0  0  0  0  0  0  0  0  0  0
   14.0080  -10.5664    0.0000 C   0  0  0  0  0  0  0  0  0  0  0  0
   13.2923  -10.9812    0.0000 C   0  0  0  0  0  0  0  0  0  0  0  0
   14.7192  -10.9812    0.0000 C   0  0  0  0  0  0  0  0  0  0  0  0
   12.5766  -10.5664    0.0000 C   0  0  0  0  0  0  0  0  0  0  0  0
   15.4303  -10.5664    0.0000 C   0  0  0  0  0  0  0  0  0  0  0  0
   11.8655  -10.9812    0.0000 C   0  0  0  0  0  0  0  0  0  0  0  0
   15.4303   -9.7414    0.0000 C   0  0  0  0  0  0  0  0  0  0  0  0
  3  2  1  0
  4  2  2  0
  5  2  1  0
  6  5  1  0
  7  5  1  0
  8  6  1  0
  9  7  1  0
 10  8  1  0
 11  9  1  0
M  CHG  2   1   1   3  -1
M  END
> <chembl_id>
CHEMBL433

> <chembl_pref_name>
VALPROATE SODIUM

$$$$

     RDKit          2D

 18 19  0  0  1  0  0  0  0  0999 V2000
    1.0125    0.4125    0.0000 N   0  0  0  0  0  0  0  0  0  0  0  0
   -0.7250   -1.3917    0.0000 C   0  0  0  0  0  0  0  0  0  0  0  0
   -0.2875   -0.0292    0.0000 C   0  0  0  0  0  0  0  0  0  0  0  0
    1.2750    1.7583    0.0000 C   0  0  0  0  0  0  0  0  0  0  0  0
    2.5667    2.2083    0.0000 N   0  0  0  0  0  0  0  0  0  0  0  0
   -2.1458   -1.3917    0.0000 C   0  0  0  0  0  0  0  0  0  0  0  0
   -1.3625    0.7083    0.0000 O   0  0  0  0  0  0  0  0  0  0  0  0
    2.0417   -0.4917    0.0000 C   0  0  0  0  0  0  0  0  0  0  0  0
   -2.4625   -0.0292    0.0000 C   0  0  0  0  0  0  0  0  0  0  0  0
    3.3417   -0.0417    0.0000 C   0  0  0  0  0  0  0  0  0  0  0  0
    3.6042    1.3000    0.0000 C   0  0  0  0  0  0  0  0  0  0  0  0
    0.2375    2.6625    0.0000 O   0  0  0  0  0  0  0  0  0  0  0  0
   -0.9875   -2.6917    0.0000 F   0  0  0  0  0  0  0  0  0  0  0  0
    0.2875   -2.0917    0.0000 F   0  0  0  0  0  0  0  0  0  0  0  0
   -2.9958   -2.4667    0.0000 O   0  0  0  0  0  0  0  0  0  0  0  0
    4.9250    1.7583    0.0000 N   0  0  0  0  0  0  0  0  0  0  0  0
   -3.7458    0.4625    0.0000 C   0  0  0  0  0  0  0  0  0  0  0  0
   -4.6458   -0.5750    0.0000 O   0  0  0  0  0  0  0  0  0  0  0  0
  2  3  1  0
  3  1  1  1
  4  1  1  0
  5  4  1  0
  6  2  1  0
  7  3  1  0
  8  1  1  0
  9  7  1  0
 10  8  2  0
 11 10  1  0
 12  4  2  0
 13  2  1  0
 14  2  1  0
  6 15  1  6
 16 11  1  0
  9 17  1  1
 18 17  1  0
  5 11  2  0
  6  9  1  0
M  END
> <chembl_id>
CHEMBL888

> <chembl_pref_name>
GEMCITABINE

$$$$

     RDKit          2D

 14 13  0  0  0  0  0  0  0  0999 V2000
    0.4625   -5.8750    0.0000 Br  0  0  0  0  0  0  0  0  0  0  0  0
    1.4917   -4.5083    0.0000 C   0  0  0  0  0  0  0  0  0  0  0  0
   -0.3458   -5.5917    0.0000 N   0  0  0  0  0  0  0  0  0  0  0  0
    0.8917   -4.1625    0.0000 O   0  0  0  0  0  0  0  0  0  0  0  0
    2.1167   -4.1667    0.0000 N   0  0  0  0  0  0  0  0  0  0  0  0
    1.5000   -5.2042    0.0000 O   0  0  0  0  0  0  0  0  0  0  0  0
    0.2750   -5.2292    0.0000 C   0  0  0  0  0  0  0  0  0  0  0  0
    0.2750   -4.5167    0.0000 C   0  0  0  0  0  0  0  0  0  0  0  0
   -0.9583   -5.2292    0.0000 C   0  0  0  0  0  0  0  0  0  0  0  0
   -0.3458   -6.3000    0.0000 C   0  0  0  0  0  0  0  0  0  0  0  0
   -0.9583   -4.5167    0.0000 C   0  0  0  0  0  0  0  0  0  0  0  0
    2.7167   -4.5417    0.0000 C   0  0  0  0  0  0  0  0  0  0  0  0
    2.1292   -3.4625    0.0000 C   0  0  0  0  0  0  0  0  0  0  0  0
   -0.3458   -4.1625    0.0000 C   0  0  0  0  0  0  0  0  0  0  0  0
  3  7  1  0
  4  2  1  0
  5  2  1  0
  6  2  2  0
  7  8  2  0
  8  4  1  0
  9 11  1  0
 10  3  1  0
 11 14  2  0
 12  5  1  0
 13  5  1  0
 14  8  1  0
  9  3  2  0
M  CHG  2   1  -1   3   1
M  END
> <chembl_id>
CHEMBL812

> <chembl_pref_name>
PYRIDOSTIGMINE BROMIDE

$$$$

     RDKit          2D

 20 20  0  0  0  0  0  0  0  0999 V2000
    2.0542   -0.9042    0.0000 N   0  0  0  0  0  0  0  0  0  0  0  0
    3.8917   -0.5542    0.0000 O   0  0  0  0  0  0  0  0  0  0  0  0
    2.6667   -0.5542    0.0000 C   0  0  0  0  0  0  0  0  0  0  0  0
    1.4375   -0.5542    0.0000 C   0  0  0  0  0  0  0  0  0  0  0  0
    2.4042   -1.5167    0.0000 C   0  0  0  0  0  0  0  0  0  0  0  0
    1.6917   -1.5167    0.0000 C   0  0  0  0  0  0  0  0  0  0  0  0
    3.2792   -0.9042    0.0000 C   0  0  0  0  0  0  0  0  0  0  0  0
   -0.9250   -1.6667    0.0000 N   0  0  0  0  0  0  0  0  0  0  0  0
   -0.3208   -1.3250    0.0000 C   0  0  0  0  0  0  0  0  0  0  0  0
   -1.5375   -0.6250    0.0000 N   0  0  0  0  0  0  0  0  0  0  0  0
   -0.3208   -0.6000    0.0000 C   0  0  0  0  0  0  0  0  0  0  0  0
   -1.5375   -1.3042    0.0000 C   0  0  0  0  0  0  0  0  0  0  0  0
   -0.9250   -0.2375    0.0000 C   0  0  0  0  0  0  0  0  0  0  0  0
    0.3375   -1.5417    0.0000 N   0  0  0  0  0  0  0  0  0  0  0  0
    0.3375   -0.3750    0.0000 N   0  0  0  0  0  0  0  0  0  0  0  0
    0.7542   -0.9792    0.0000 C   0  0  0  0  0  0  0  0  0  0  0  0
   -2.1750   -1.6500    0.0000 O   0  0  0  0  0  0  0  0  0  0  0  0
   -0.9250    0.4500    0.0000 O   0  0  0  0  0  0  0  0  0  0  0  0
   -0.9375   -2.4000    0.0000 C   0  0  0  0  0  0  0  0  0  0  0  0
   -2.1750   -0.2625    0.0000 C   0  0  0  0  0  0  0  0  0  0  0  0
  2  7  1  0
  3  1  1  0
  4  1  1  0
  5  1  1  0
  6  1  1  0
  7  3  1  0
  9  8  1  0
 10 12  1  0
 11  9  2  0
 12  8  1  0
 13 10  1  0
 14  9  1  0
 15 11  1  0
 16 14  2  0
 17 12  2  0
 18 13  2  0
 19  8  1  0
 20 10  1  0
 13 11  1  0
 16 15  1  0
M  CHG  2   1   1  15  -1
M  END
> <chembl_id>
CHEMBL1200434

> <chembl_pref_name>
OXTRIPHYLLINE

$$$$

     RDKit          2D

  6  4  0  0  0  0  0  0  0  0999 V2000
    3.6792   -3.9708    0.0000 K   0  0  0  0  0 15  0  0  0  0  0  0
    2.2333   -3.4542    0.0000 Cl  0  0  0  0  0  0  0  0  0  0  0  0
    2.8458   -3.8125    0.0000 O   0  0  0  0  0  0  0  0  0  0  0  0
    1.6167   -3.8125    0.0000 O   0  0  0  0  0  0  0  0  0  0  0  0
    2.5792   -2.8375    0.0000 O   0  0  0  0  0  0  0  0  0  0  0  0
    1.8750   -2.8375    0.0000 O   0  0  0  0  0  0  0  0  0  0  0  0
  3  2  1  0
  4  2  2  0
  5  2  2  0
  6  2  2  0
M  CHG  2   1   1   3  -1
M  END
> <chembl_id>
CHEMBL1200696

> <chembl_pref_name>
POTASSIUM PERCHLORATE

$$$$

     RDKit          2D

 22 24  0  0  0  0  0  0  0  0999 V2000
    3.1625   -2.6667    0.0000 C   0  0  0  0  0  0  0  0  0  0  0  0
    2.9417   -3.3667    0.0000 C   0  0  0  0  0  0  0  0  0  0  0  0
    3.8917   -2.6667    0.0000 N   0  0  0  0  0  0  0  0  0  0  0  0
    3.5167   -3.7750    0.0000 O   0  0  0  0  0  0  0  0  0  0  0  0
    4.1125   -3.3417    0.0000 C   0  0  0  0  0  0  0  0  0  0  0  0
    2.8042   -2.0542    0.0000 C   0  0  0  0  0  0  0  0  0  0  0  0
    5.9292   -3.7500    0.0000 C   0  0  0  0  0  0  0  0  0  0  0  0
    2.3292   -3.6917    0.0000 C   0  0  0  0  0  0  0  0  0  0  0  0
    5.9250   -4.4375    0.0000 O   0  0  0  0  0  0  0  0  0  0  0  0
    4.7167   -3.7250    0.0000 C   0  0  0  0  0  0  0  0  0  0  0  0
    5.3292   -3.3625    0.0000 C   0  0  0  0  0  0  0  0  0  0  0  0
    6.5042   -3.3792    0.0000 O   0  0  0  0  0  0  0  0  0  0  0  0
    3.1625   -1.4417    0.0000 C   0  0  0  0  0  0  0  0  0  0  0  0
    2.3292   -4.3917    0.0000 C   0  0  0  0  0  0  0  0  0  0  0  0
    1.7292   -3.3500    0.0000 C   0  0  0  0  0  0  0  0  0  0  0  0
    2.1125   -2.0542    0.0000 C   0  0  0  0  0  0  0  0  0  0  0  0
    1.7375   -1.4375    0.0000 C   0  0  0  0  0  0  0  0  0  0  0  0
    2.8167   -0.8417    0.0000 C   0  0  0  0  0  0  0  0  0  0  0  0
    1.7167   -4.7667    0.0000 C   0  0  0  0  0  0  0  0  0  0  0  0
    1.1250   -3.6917    0.0000 C   0  0  0  0  0  0  0  0  0  0  0  0
    1.1042   -4.4042    0.0000 C   0  0  0  0  0  0  0  0  0  0  0  0
    2.0875   -0.8167    0.0000 C   0  0  0  0  0  0  0  0  0  0  0  0
  2  1  2  0
  3  1  1  0
  4  2  1  0
  5  3  2  0
  6  1  1  0
  7 11  1  0
  8  2  1  0
  9  7  2  0
 10  5  1  0
 11 10  1  0
 12  7  1  0
 13  6  1  0
 14  8  2  0
 15  8  1  0
 16  6  2  0
 17 16  1  0
 18 13  2  0
 19 14  1  0
 20 15  2  0
 21 20  1  0
 22 17  2  0
  5  4  1  0
 22 18  1  0
 21 19  2  0
M  END
> <chembl_id>
CHEMBL1071

> <chembl_pref_name>
OXAPROZIN

$$$$

     RDKit          2D

  8  6  0  0  0  0  0  0  0  0999 V2000
    3.1530   -2.1456    0.0000 Cl  0  0  0  0  0  0  0  0  0  0  0  0
    2.7365   -0.7459    0.0000 C   0  0  0  0  0  0  0  0  0  0  0  0
    2.0149   -1.1576    0.0000 C   0  0  0  0  0  0  0  0  0  0  0  0
    2.7365    0.0823    0.0000 O   0  0  0  0  0  0  0  0  0  0  0  0
    2.0149   -1.9810    0.0000 N   0  0  0  0  0  0  0  0  0  0  0  0
    3.4534   -1.1576    0.0000 O   0  0  0  0  0  0  0  0  0  0  0  0
    0.5910   -1.1576    0.0000 S   0  0  0  0  0  0  0  0  0  0  0  0
    1.3029   -0.7459    0.0000 C   0  0  0  0  0  0  0  0  0  0  0  0
  3  2  1  0
  4  2  2  0
  3  5  1  1
  6  2  1  0
  7  8  1  0
  8  3  1  0
M  END
> <chembl_id>
CHEMBL1200630

> <chembl_pref_name>
CYSTEINE HYDROCHLORIDE

$$$$

     RDKit          2D

 15 15  0  0  0  0  0  0  0  0999 V2000
   -1.8833   -0.1042    0.0000 C   0  0  0  0  0  0  0  0  0  0  0  0
   -3.1125    0.6000    0.0000 C   0  0  0  0  0  0  0  0  0  0  0  0
    1.8167    0.6750    0.0000 N   0  0  0  0  0  0  0  0  0  0  0  0
   -0.6458    0.6375    0.0000 C   0  0  0  0  0  0  0  0  0  0  0  0
    3.0875   -0.0292    0.0000 C   0  0  0  0  0  0  0  0  0  0  0  0
    0.6042   -0.0667    0.0000 C   0  0  0  0  0  0  0  0  0  0  0  0
   -3.1125    2.0375    0.0000 Cl  0  0  0  0  0  0  0  0  0  0  0  0
   -0.6458    2.0375    0.0000 O   0  0  0  0  0  0  0  0  0  0  0  0
   -1.8833   -1.5417    0.0000 C   0  0  0  0  0  0  0  0  0  0  0  0
   -4.3458   -0.1042    0.0000 C   0  0  0  0  0  0  0  0  0  0  0  0
    2.4000   -1.2792    0.0000 C   0  0  0  0  0  0  0  0  0  0  0  0
    4.3375   -0.7250    0.0000 C   0  0  0  0  0  0  0  0  0  0  0  0
    3.7792    1.2333    0.0000 C   0  0  0  0  0  0  0  0  0  0  0  0
   -3.1125   -2.2542    0.0000 C   0  0  0  0  0  0  0  0  0  0  0  0
   -4.3458   -1.5625    0.0000 C   0  0  0  0  0  0  0  0  0  0  0  0
  2  1  1  0
  3  6  1  0
  4  1  1  0
  5  3  1  0
  6  4  1  0
  7  2  1  0
  8  4  1  0
  9  1  2  0
 10  2  2  0
 11  5  1  0
 12  5  1  0
 13  5  1  0
 14  9  1  0
 15 14  2  0
 10 15  1  0
M  END
> <chembl_id>
CHEMBL1159717

> <chembl_pref_name>
TULOBUTEROL

$$$$

     RDKit          2D

 25 28  0  0  1  0  0  0  0  0999 V2000
    4.1250   -4.8875    0.0000 C   0  0  0  0  0  0  0  0  0  0  0  0
    4.1167   -5.5917    0.0000 C   0  0  0  0  0  0  0  0  0  0  0  0
    3.5042   -5.9417    0.0000 C   0  0  0  0  0  0  0  0  0  0  0  0
    2.8917   -5.5833    0.0000 C   0  0  0  0  0  0  0  0  0  0  0  0
    2.2792   -5.9375    0.0000 C   0  0  0  0  0  0  0  0  0  0  0  0
    4.8000   -4.6750    0.0000 C   0  0  0  0  0  0  0  0  0  0  0  0
    2.2792   -6.6417    0.0000 C   0  0  0  0  0  0  0  0  0  0  0  0
    3.5125   -4.5250    0.0000 C   0  0  0  0  0  0  0  0  0  0  0  0
    2.8958   -4.8750    0.0000 C   0  0  0  0  0  0  0  0  0  0  0  0
    4.7875   -5.8208    0.0000 C   0  0  0  0  0  0  0  0  0  0  0  0
    3.5000   -6.6500    0.0000 C   0  0  0  0  0  0  0  0  0  0  0  0
    2.8875   -7.0000    0.0000 C   0  0  0  0  0  0  0  0  0  0  0  0
    5.2083   -5.2500    0.0000 C   0  0  0  0  0  0  0  0  0  0  0  0
    1.6667   -7.0000    0.0000 C   0  0  0  0  0  0  0  0  0  0  0  0
    4.7917   -3.9667    0.0000 O   0  0  0  0  0  0  0  0  0  0  0  0
    4.1167   -4.1792    0.0000 C   0  0  0  0  0  0  0  0  0  0  0  0
    1.6667   -5.5792    0.0000 C   0  0  0  0  0  0  0  0  0  0  0  0
    5.4125   -4.3167    0.0000 C   0  0  0  0  0  0  0  0  0  0  0  0
    1.0542   -6.6417    0.0000 C   0  0  0  0  0  0  0  0  0  0  0  0
    6.0292   -4.6625    0.0000 C   0  0  0  0  0  0  0  0  0  0  0  0
    1.0542   -5.9375    0.0000 C   0  0  0  0  0  0  0  0  0  0  0  0
    2.8875   -6.2917    0.0000 H   0  0  0  0  0  0  0  0  0  0  0  0
    4.1125   -6.3000    0.0000 H   0  0  0  0  0  0  0  0  0  0  0  0
    2.2750   -5.2292    0.0000 H   0  0  0  0  0  0  0  0  0  0  0  0
    3.5000   -5.2292    0.0000 H   0  0  0  0  0  0  0  0  0  0  0  0
  2  1  1  0
  3  2  1  0
  4  3  1  0
  5  4  1  0
  6  1  1  0
  7  5  1  0
  8  1  1  0
  9  8  1  0
 10  2  1  0
 11  3  1  0
 12 11  1  0
 13  6  1  0
 14  7  2  0
  6 15  1  1
  1 16  1  1
 17  5  1  0
 18  6  1  0
 19 14  1  0
 20 18  1  0
 21 17  1  0
  4 22  1  6
  2 23  1  6
  5 24  1  1
  3 25  1  1
 13 10  1  0
  9  4  1  0
 12  7  1  0
 19 21  1  0
M  END
> <chembl_id>
CHEMBL1200623

> <chembl_pref_name>
ETHYLESTRENOL

$$$$

     RDKit          2D

 21 23  0  0  0  0  0  0  0  0999 V2000
    0.6917   -0.7625    0.0000 C   0  0  0  0  0  0  0  0  0  0  0  0
    2.8167   -0.2292    0.0000 N   0  0  0  0  0  0  0  0  0  0  0  0
   -2.5083   -0.2125    0.0000 N   0  0  0  0  0  0  0  0  0  0  0  0
    1.6000    0.0208    0.0000 C   0  0  0  0  0  0  0  0  0  0  0  0
    0.7167   -1.9917    0.0000 C   0  0  0  0  0  0  0  0  0  0  0  0
    1.6792   -2.7292    0.0000 N   0  0  0  0  0  0  0  0  0  0  0  0
   -0.3833   -0.1542    0.0000 C   0  0  0  0  0  0  0  0  0  0  0  0
   -1.4333   -0.8042    0.0000 C   0  0  0  0  0  0  0  0  0  0  0  0
    2.8542   -2.4375    0.0000 C   0  0  0  0  0  0  0  0  0  0  0  0
   -2.5083    1.0000    0.0000 O   0  0  0  0  0  0  0  0  0  0  0  0
   -3.5625   -0.8375    0.0000 O   0  0  0  0  0  0  0  0  0  0  0  0
    3.3500   -1.3375    0.0000 C   0  0  0  0  0  0  0  0  0  0  0  0
    1.3250    1.1833    0.0000 C   0  0  0  0  0  0  0  0  0  0  0  0
   -0.3375   -2.6167    0.0000 C   0  0  0  0  0  0  0  0  0  0  0  0
   -1.4333   -2.0375    0.0000 C   0  0  0  0  0  0  0  0  0  0  0  0
    3.6292   -3.3667    0.0000 O   0  0  0  0  0  0  0  0  0  0  0  0
    2.2125    2.0083    0.0000 C   0  0  0  0  0  0  0  0  0  0  0  0
    0.1542    1.5458    0.0000 C   0  0  0  0  0  0  0  0  0  0  0  0
    1.9292    3.2083    0.0000 C   0  0  0  0  0  0  0  0  0  0  0  0
   -0.1125    2.7500    0.0000 C   0  0  0  0  0  0  0  0  0  0  0  0
    0.7625    3.5958    0.0000 C   0  0  0  0  0  0  0  0  0  0  0  0
  2  4  2  0
  3  8  1  0
  4  1  1  0
  5  1  2  0
  6  5  1  0
  7  1  1  0
  8  7  2  0
  9  6  1  0
 10  3  1  0
 11  3  2  0
 12  2  1  0
 13  4  1  0
 14  5  1  0
 15  8  1  0
 16  9  2  0
 17 13  2  0
 18 13  1  0
 19 17  1  0
 20 18  2  0
 21 20  1  0
 14 15  2  0
 12  9  1  0
 19 21  2  0
M  CHG  2   3   1  10  -1
M  END
> <chembl_id>
CHEMBL13209

> <chembl_pref_name>
NITRAZEPAM

$$$$

     RDKit          2D

 19 18  0  0  0  0  0  0  0  0999 V2000
    2.0250   -1.4667    0.0000 C   0  0  0  0  0  0  0  0  0  0  0  0
    3.2500   -1.4667    0.0000 N   0  0  0  0  0  0  0  0  0  0  0  0
    1.4125   -1.8292    0.0000 C   0  0  0  0  0  0  0  0  0  0  0  0
    2.6375   -1.8250    0.0000 C   0  0  0  0  0  0  0  0  0  0  0  0
    1.4125   -2.5417    0.0000 C   0  0  0  0  0  0  0  0  0  0  0  0
    0.8000   -1.4750    0.0000 C   0  0  0  0  0  0  0  0  0  0  0  0
    2.6417   -2.5292    0.0000 C   0  0  0  0  0  0  0  0  0  0  0  0
    0.1875   -1.8292    0.0000 C   0  0  0  0  0  0  0  0  0  0  0  0
    0.8000   -2.8917    0.0000 C   0  0  0  0  0  0  0  0  0  0  0  0
    0.1875   -2.5417    0.0000 C   0  0  0  0  0  0  0  0  0  0  0  0
    1.4417   -4.0250    0.0000 C   0  0  0  0  0  0  0  0  0  0  0  0
    2.6667   -4.0250    0.0000 C   0  0  0  0  0  0  0  0  0  0  0  0
    0.8292   -4.3792    0.0000 C   0  0  0  0  0  0  0  0  0  0  0  0
    2.0542   -4.3792    0.0000 C   0  0  0  0  0  0  0  0  0  0  0  0
    2.6667   -3.3167    0.0000 O   0  0  0  0  0  0  0  0  0  0  0  0
    0.8292   -5.0875    0.0000 O   0  0  0  0  0  0  0  0  0  0  0  0
    2.0542   -5.0875    0.0000 N   0  0  0  0  0  0  0  0  0  0  0  0
    3.2792   -4.3792    0.0000 O   0  0  0  0  0  0  0  0  0  0  0  0
    0.2167   -4.0250    0.0000 O   0  0  0  0  0  0  0  0  0  0  0  0
  2  4  1  0
  3  1  1  0
  4  1  1  0
  5  3  1  0
  6  3  2  0
  7  4  1  0
  8  6  1  0
  9  5  2  0
 10  8  2  0
  9 10  1  0
 12 14  1  0
 13 11  1  0
 14 11  1  0
 15 12  2  0
 16 13  2  0
 17 14  1  0
 18 12  1  0
 19 13  1  0
M  END
> <chembl_id>
CHEMBL1200377

> <chembl_pref_name>
AMPHETAMINE ASPARTATE

$$$$

     RDKit          2D

 11 11  0  0  0  0  0  0  0  0999 V2000
    5.3500   -4.9167    0.0000 C   0  0  0  0  0  0  0  0  0  0  0  0
    5.9667   -5.2792    0.0000 C   0  0  0  0  0  0  0  0  0  0  0  0
    5.3500   -4.2167    0.0000 C   0  0  0  0  0  0  0  0  0  0  0  0
    4.7375   -5.2792    0.0000 C   0  0  0  0  0  0  0  0  0  0  0  0
    5.9667   -5.9917    0.0000 O   0  0  0  0  0  0  0  0  0  0  0  0
    4.7375   -3.8542    0.0000 C   0  0  0  0  0  0  0  0  0  0  0  0
    4.1167   -4.9250    0.0000 C   0  0  0  0  0  0  0  0  0  0  0  0
    6.5792   -4.9292    0.0000 O   0  0  0  0  0  0  0  0  0  0  0  0
    3.5042   -5.2792    0.0000 N   0  0  0  0  0  0  0  0  0  0  0  0
    4.1167   -4.2250    0.0000 C   0  0  0  0  0  0  0  0  0  0  0  0
    5.9667   -3.8625    0.0000 O   0  0  0  0  0  0  0  0  0  0  0  0
  2  1  1  0
  3  1  2  0
  4  1  1  0
  5  2  2  0
  6  3  1  0
  7  4  2  0
  8  2  1  0
  9  7  1  0
 10  7  1  0
 11  3  1  0
 10  6  2  0
M  END
> <chembl_id>
CHEMBL704

> <chembl_pref_name>
MESALAMINE

$$$$

     RDKit          2D

 15 17  0  0  0  0  0  0  0  0999 V2000
    5.0750  -18.7167    0.0000 C   0  0  0  0  0  0  0  0  0  0  0  0
    5.0750  -17.3042    0.0000 N   0  0  0  0  0  0  0  0  0  0  0  0
    4.4542  -18.3667    0.0000 C   0  0  0  0  0  0  0  0  0  0  0  0
    5.6875  -18.3667    0.0000 C   0  0  0  0  0  0  0  0  0  0  0  0
    4.4542  -17.6542    0.0000 C   0  0  0  0  0  0  0  0  0  0  0  0
    5.6875  -17.6542    0.0000 C   0  0  0  0  0  0  0  0  0  0  0  0
    5.0750  -19.4292    0.0000 N   0  0  0  0  0  0  0  0  0  0  0  0
    3.8417  -18.7167    0.0000 C   0  0  0  0  0  0  0  0  0  0  0  0
    6.3042  -18.7167    0.0000 C   0  0  0  0  0  0  0  0  0  0  0  0
    3.8417  -17.3042    0.0000 C   0  0  0  0  0  0  0  0  0  0  0  0
    6.3042  -17.3042    0.0000 C   0  0  0  0  0  0  0  0  0  0  0  0
    3.2250  -18.3667    0.0000 C   0  0  0  0  0  0  0  0  0  0  0  0
    6.9167  -18.3667    0.0000 C   0  0  0  0  0  0  0  0  0  0  0  0
    3.2250  -17.6542    0.0000 C   0  0  0  0  0  0  0  0  0  0  0  0
    6.9167  -17.6542    0.0000 C   0  0  0  0  0  0  0  0  0  0  0  0
  2  6  1  0
  3  1  2  0
  4  1  1  0
  5  3  1  0
  6  4  1  0
  7  1  1  0
  8  3  1  0
  9  4  2  0
 10  5  1  0
 11  6  2  0
 12  8  1  0
 13  9  1  0
 14 12  1  0
 15 13  2  0
  2  5  2  0
 15 11  1  0
 14 10  1  0
M  END
> <chembl_id>
CHEMBL95

> <chembl_pref_name>
TACRINE

$$$$

     RDKit          2D

 15 15  0  0  0  0  0  0  0  0999 V2000
   -2.7083   -1.5042    0.0000 C   0  0  0  0  0  0  0  0  0  0  0  0
   -2.2375    0.5375    0.0000 N   0  0  0  0  0  0  0  0  0  0  0  0
   -1.5583   -0.7167    0.0000 C   0  0  0  0  0  0  0  0  0  0  0  0
   -2.2833   -2.8792    0.0000 S   0  0  0  0  0  0  0  0  0  0  0  0
   -1.4375    1.7583    0.0000 C   0  0  0  0  0  0  0  0  0  0  0  0
    2.7375   -0.8250    0.0000 C   0  0  0  0  0  0  0  0  0  0  0  0
   -4.0708   -1.0292    0.0000 O   0  0  0  0  0  0  0  0  0  0  0  0
   -2.1208    3.0083    0.0000 O   0  0  0  0  0  0  0  0  0  0  0  0
    1.9750   -2.0417    0.0000 O   0  0  0  0  0  0  0  0  0  0  0  0
    0.6375    0.4333    0.0000 S   0  0  0  0  0  0  0  0  0  0  0  0
   -0.4208   -1.5375    0.0000 C   0  0  0  0  0  0  0  0  0  0  0  0
   -0.8625   -2.8792    0.0000 C   0  0  0  0  0  0  0  0  0  0  0  0
    4.1875   -0.8292    0.0000 O   0  0  0  0  0  0  0  0  0  0  0  0
   -0.0333    1.7583    0.0000 C   0  0  0  0  0  0  0  0  0  0  0  0
    2.0292    0.4333    0.0000 C   0  0  0  0  0  0  0  0  0  0  0  0
  2  3  1  0
  3  1  1  0
  4  1  1  0
  5  2  1  0
  6 15  1  0
  7  1  2  0
  8  5  2  0
  9  6  2  0
 10 14  1  0
 11  3  1  0
 12  4  1  0
 13  6  1  0
 14  5  1  0
 15 10  1  0
 11 12  1  0
M  END
> <chembl_id>
CHEMBL1697744

> <chembl_pref_name>
ERDOSTEINE

$$$$

     RDKit          2D

  5  3  0  0  0  0  0  0  0  0999 V2000
    0.5417   -0.4042    0.0000 Na  0  0  0  0  0 15  0  0  0  0  0  0
   -0.7833   -0.0333    0.0000 C   0  0  0  0  0  0  0  0  0  0  0  0
   -0.1958   -0.4667    0.0000 O   0  0  0  0  0  0  0  0  0  0  0  0
   -0.7833    0.6500    0.0000 O   0  0  0  0  0  0  0  0  0  0  0  0
   -1.3708   -0.4375    0.0000 C   0  0  0  0  0  0  0  0  0  0  0  0
  3  2  1  0
  4  2  2  0
  5  2  1  0
M  CHG  2   1   1   3  -1
M  END
> <chembl_id>
CHEMBL1354

> <chembl_pref_name>
SODIUM ACETATE

$$$$

     RDKit          2D

 12 11  0  0  0  0  0  0  0  0999 V2000
    0.0042   -6.1875    0.0000 C   0  0  0  0  0  0  0  0  0  0  0  0
    1.2417   -6.1875    0.0000 C   0  0  0  0  0  0  0  0  0  0  0  0
    0.6250   -5.8292    0.0000 C   0  0  0  0  0  0  0  0  0  0  0  0
   -0.6000   -5.8292    0.0000 F   0  0  0  0  0  0  0  0  0  0  0  0
    1.8542   -5.8292    0.0000 F   0  0  0  0  0  0  0  0  0  0  0  0
    1.5917   -6.8000    0.0000 F   0  0  0  0  0  0  0  0  0  0  0  0
    0.8875   -6.8000    0.0000 F   0  0  0  0  0  0  0  0  0  0  0  0
    0.3542   -6.8000    0.0000 F   0  0  0  0  0  0  0  0  0  0  0  0
   -0.3500   -6.8000    0.0000 F   0  0  0  0  0  0  0  0  0  0  0  0
    0.6167   -5.1750    0.0000 O   0  0  0  0  0  0  0  0  0  0  0  0
    0.0042   -4.8375    0.0000 C   0  0  0  0  0  0  0  0  0  0  0  0
   -0.5875   -5.2250    0.0000 F   0  0  0  0  0  0  0  0  0  0  0  0
  2  3  1  0
  3  1  1  0
  4  1  1  0
  5  2  1  0
  6  2  1  0
  7  2  1  0
  8  1  1  0
  9  1  1  0
 10  3  1  0
 11 10  1  0
 12 11  1  0
M  END
> <chembl_id>
CHEMBL1200694

> <chembl_pref_name>
SEVOFLURANE

$$$$

     RDKit          2D

 14 15  0  0  0  0  0  0  0  0999 V2000
   -0.4250    0.0708    0.0000 N   0  0  0  0  0  0  0  0  0  0  0  0
    0.3000   -1.1792    0.0000 C   0  0  0  0  0  0  0  0  0  0  0  0
    1.7292   -1.1792    0.0000 N   0  0  0  0  0  0  0  0  0  0  0  0
    0.3000    1.3208    0.0000 C   0  0  0  0  0  0  0  0  0  0  0  0
    1.7292    1.3208    0.0000 C   0  0  0  0  0  0  0  0  0  0  0  0
    2.4542    0.0708    0.0000 C   0  0  0  0  0  0  0  0  0  0  0  0
   -1.8583    0.0708    0.0000 C   0  0  0  0  0  0  0  0  0  0  0  0
   -0.4250   -2.4250    0.0000 O   0  0  0  0  0  0  0  0  0  0  0  0
    3.8792    0.0875    0.0000 O   0  0  0  0  0  0  0  0  0  0  0  0
   -2.7000    1.2250    0.0000 O   0  0  0  0  0  0  0  0  0  0  0  0
    2.4167    2.5583    0.0000 F   0  0  0  0  0  0  0  0  0  0  0  0
   -2.6708   -1.0875    0.0000 C   0  0  0  0  0  0  0  0  0  0  0  0
   -4.0458    0.7625    0.0000 C   0  0  0  0  0  0  0  0  0  0  0  0
   -4.0333   -0.6542    0.0000 C   0  0  0  0  0  0  0  0  0  0  0  0
  2  1  1  0
  3  2  1  0
  4  1  1  0
  5  4  2  0
  6  5  1  0
  7  1  1  0
  8  2  2  0
  9  6  2  0
 10  7  1  0
 11  5  1  0
 12  7  1  0
 13 10  1  0
 14 12  1  0
 14 13  1  0
  3  6  1  0
M  END
> <chembl_id>
CHEMBL20883

> <chembl_pref_name>
TEGAFUR

$$$$

     RDKit          2D

  3  0  0  0  0  0  0  0  0  0999 V2000
    0.5250   -2.5000    0.0000 Ca  0  0  0  0  0 15  0  0  0  0  0  0
   -0.5708   -2.5000    0.0000 O   0  0  0  0  0  0  0  0  0  0  0  0
    2.0542   -2.5000    0.0000 O   0  0  0  0  0  0  0  0  0  0  0  0
M  CHG  3   1   2   2  -1   3  -1
M  END
> <chembl_id>
CHEMBL2106388

> <chembl_pref_name>
CALCIUM HYDROXIDE

$$$$

     RDKit          2D

 10 10  0  0  0  0  0  0  0  0999 V2000
    2.1417   -2.7875    0.0000 N   0  0  0  0  0  0  0  0  0  0  0  0
    1.0667   -1.8375    0.0000 C   0  0  0  0  0  0  0  0  0  0  0  0
   -2.7083   -1.8167    0.0000 N   0  0  0  0  0  0  0  0  0  0  0  0
   -0.2833   -2.3042    0.0000 C   0  0  0  0  0  0  0  0  0  0  0  0
    3.5000   -2.3292    0.0000 C   0  0  0  0  0  0  0  0  0  0  0  0
   -1.3500   -1.3542    0.0000 C   0  0  0  0  0  0  0  0  0  0  0  0
   -3.7875   -0.8667    0.0000 C   0  0  0  0  0  0  0  0  0  0  0  0
    1.3417   -0.4292    0.0000 C   0  0  0  0  0  0  0  0  0  0  0  0
    3.7792   -0.9167    0.0000 C   0  0  0  0  0  0  0  0  0  0  0  0
    2.7000    0.0125    0.0000 C   0  0  0  0  0  0  0  0  0  0  0  0
  2  1  2  0
  3  6  1  0
  4  2  1  0
  5  1  1  0
  6  4  1  0
  7  3  1  0
  8  2  1  0
  9  5  2  0
 10  9  1  0
  8 10  2  0
M  END
> <chembl_id>
CHEMBL24441

> <chembl_pref_name>
BETAHISTINE

$$$$

     RDKit          2D

 19 20  0  0  0  0  0  0  0  0999 V2000
    0.3000    0.0208    0.0000 C   0  0  0  0  0  0  0  0  0  0  0  0
    1.6750    0.0208    0.0000 O   0  0  0  0  0  0  0  0  0  0  0  0
   -0.3000   -1.1792    0.0000 O   0  0  0  0  0  0  0  0  0  0  0  0
   -0.3750    1.1000    0.0000 C   0  0  0  0  0  0  0  0  0  0  0  0
    0.4417    2.2458    0.0000 N   0  0  0  0  0  0  0  0  0  0  0  0
   -1.6625   -1.1667    0.0000 C   0  0  0  0  0  0  0  0  0  0  0  0
    2.3167   -1.1792    0.0000 C   0  0  0  0  0  0  0  0  0  0  0  0
    1.5292    2.2458    0.0000 C   0  0  0  0  0  0  0  0  0  0  0  0
   -0.1708    3.4458    0.0000 C   0  0  0  0  0  0  0  0  0  0  0  0
   -2.3708   -0.0292    0.0000 C   0  0  0  0  0  0  0  0  0  0  0  0
   -2.3208   -2.3250    0.0000 C   0  0  0  0  0  0  0  0  0  0  0  0
    3.6667   -1.1667    0.0000 C   0  0  0  0  0  0  0  0  0  0  0  0
    1.6167   -2.2792    0.0000 C   0  0  0  0  0  0  0  0  0  0  0  0
    4.3375   -2.3667    0.0000 C   0  0  0  0  0  0  0  0  0  0  0  0
    2.2917   -3.4375    0.0000 C   0  0  0  0  0  0  0  0  0  0  0  0
   -3.7000   -0.0250    0.0000 C   0  0  0  0  0  0  0  0  0  0  0  0
   -3.6708   -2.3250    0.0000 C   0  0  0  0  0  0  0  0  0  0  0  0
    3.6542   -3.4250    0.0000 C   0  0  0  0  0  0  0  0  0  0  0  0
   -4.3458   -1.1542    0.0000 C   0  0  0  0  0  0  0  0  0  0  0  0
  2  1  1  0
  3  1  1  0
  4  1  1  0
  5  4  1  0
  6  3  1  0
  7  2  1  0
  8  5  1  0
  9  5  1  0
 10  6  2  0
 11  6  1  0
 12  7  2  0
 13  7  1  0
 14 12  1  0
 15 13  2  0
 16 10  1  0
 17 11  2  0
 18 15  1  0
 19 17  1  0
 16 19  2  0
 14 18  2  0
M  END
> <chembl_id>
CHEMBL85231

> <chembl_pref_name>
MEDIFOXAMINE

$$$$

     RDKit          2D

  6  5  0  0  0  0  0  0  0  0999 V2000
    0.0292    0.4833    0.0000 C   0  0  0  0  0  0  0  0  0  0  0  0
    0.0292   -0.9375    0.0000 O   0  0  0  0  0  0  0  0  0  0  0  0
   -2.4500    0.4833    0.0000 O   0  0  0  0  0  0  0  0  0  0  0  0
    2.5250    0.4833    0.0000 O   0  0  0  0  0  0  0  0  0  0  0  0
    1.2667    1.2000    0.0000 C   0  0  0  0  0  0  0  0  0  0  0  0
   -1.2000    1.2000    0.0000 C   0  0  0  0  0  0  0  0  0  0  0  0
  2  1  2  0
  3  6  1  0
  4  5  1  0
  5  1  1  0
  6  1  1  0
M  END
> <chembl_id>
CHEMBL1229937

> <chembl_pref_name>
DIHYDROXYACETONE

$$$$

     RDKit          2D

 13 13  0  0  0  0  0  0  0  0999 V2000
    5.4415   -1.1706    0.0000 Cl  0  0  0  0  0  0  0  0  0  0  0  0
    7.1171   -2.8288    0.0000 N   0  0  0  0  0  0  0  0  0  0  0  0
    7.8316   -2.4163    0.0000 N   0  0  0  0  0  0  0  0  0  0  0  0
    7.8316   -1.5913    0.0000 C   0  0  0  0  0  0  0  0  0  0  0  0
    7.1171   -1.1788    0.0000 N   0  0  0  0  0  0  0  0  0  0  0  0
    7.1171   -0.3538    0.0000 N   0  0  0  0  0  0  0  0  0  0  0  0
    7.8316    0.0587    0.0000 C   0  0  0  0  0  0  0  0  0  0  0  0
    8.5461   -0.3538    0.0000 C   0  0  0  0  0  0  0  0  0  0  0  0
    9.2605    0.0587    0.0000 C   0  0  0  0  0  0  0  0  0  0  0  0
    9.9750   -0.3538    0.0000 C   0  0  0  0  0  0  0  0  0  0  0  0
    9.9750   -1.1788    0.0000 C   0  0  0  0  0  0  0  0  0  0  0  0
    9.2605   -1.5913    0.0000 C   0  0  0  0  0  0  0  0  0  0  0  0
    8.5461   -1.1788    0.0000 C   0  0  0  0  0  0  0  0  0  0  0  0
  2  3  1  0
  3  4  1  0
  4  5  2  0
  5  6  1  0
  6  7  2  0
  7  8  1  0
  8  9  2  0
  9 10  1  0
 10 11  2  0
 11 12  1  0
 12 13  2  0
  4 13  1  0
  8 13  1  0
M  END
> <chembl_id>
CHEMBL542541

> <chembl_pref_name>
HYDRALAZINE HYDROCHLORIDE

$$$$

     RDKit          2D

 11 11  0  0  0  0  0  0  0  0999 V2000
    5.5000   -6.7542    0.0000 N   0  0  0  0  0  0  0  0  0  0  0  0
    5.7250   -6.0792    0.0000 C   0  0  0  0  0  0  0  0  0  0  0  0
    4.7792   -6.7542    0.0000 C   0  0  0  0  0  0  0  0  0  0  0  0
    5.1417   -5.6542    0.0000 O   0  0  0  0  0  0  0  0  0  0  0  0
    4.5667   -6.0750    0.0000 C   0  0  0  0  0  0  0  0  0  0  0  0
    6.4042   -5.8625    0.0000 O   0  0  0  0  0  0  0  0  0  0  0  0
    4.3542   -7.3292    0.0000 O   0  0  0  0  0  0  0  0  0  0  0  0
    5.9250   -7.3375    0.0000 C   0  0  0  0  0  0  0  0  0  0  0  0
    4.3750   -5.4292    0.0000 C   0  0  0  0  0  0  0  0  0  0  0  0
    3.9542   -6.4417    0.0000 C   0  0  0  0  0  0  0  0  0  0  0  0
    3.7375   -5.1500    0.0000 C   0  0  0  0  0  0  0  0  0  0  0  0
  2  1  1  0
  3  1  1  0
  4  2  1  0
  5  3  1  0
  6  2  2  0
  7  3  2  0
  8  1  1  0
  9  5  1  0
 10  5  1  0
 11  9  1  0
  4  5  1  0
M  END
> <chembl_id>
CHEMBL1100

> <chembl_pref_name>
PARAMETHADIONE

$$$$

     RDKit          2D

 17 18  0  0  0  0  0  0  0  0999 V2000
    5.6542   -4.6250    0.0000 N   0  0  0  0  0  0  0  0  0  0  0  0
    3.2292   -4.6250    0.0000 O   0  0  0  0  0  0  0  0  0  0  0  0
    2.6042   -4.9792    0.0000 C   0  0  0  0  0  0  0  0  0  0  0  0
    4.4292   -3.9167    0.0000 O   0  0  0  0  0  0  0  0  0  0  0  0
    4.4292   -4.6250    0.0000 C   0  0  0  0  0  0  0  0  0  0  0  0
    2.6042   -5.6792    0.0000 C   0  0  0  0  0  0  0  0  0  0  0  0
    3.8375   -4.9792    0.0000 C   0  0  0  0  0  0  0  0  0  0  0  0
    3.2292   -6.0500    0.0000 O   0  0  0  0  0  0  0  0  0  0  0  0
    5.0542   -4.9792    0.0000 C   0  0  0  0  0  0  0  0  0  0  0  0
    5.6542   -3.9167    0.0000 C   0  0  0  0  0  0  0  0  0  0  0  0
    5.0542   -3.5500    0.0000 C   0  0  0  0  0  0  0  0  0  0  0  0
    1.9750   -4.6250    0.0000 C   0  0  0  0  0  0  0  0  0  0  0  0
    1.9750   -6.0292    0.0000 C   0  0  0  0  0  0  0  0  0  0  0  0
    3.8375   -5.6917    0.0000 C   0  0  0  0  0  0  0  0  0  0  0  0
    4.4667   -6.0500    0.0000 C   0  0  0  0  0  0  0  0  0  0  0  0
    1.3667   -4.9792    0.0000 C   0  0  0  0  0  0  0  0  0  0  0  0
    1.3667   -5.6792    0.0000 C   0  0  0  0  0  0  0  0  0  0  0  0
  2  7  1  0
  3  2  1  0
  4 11  1  0
  5  9  1  0
  6  3  2  0
  7  5  1  0
  8  6  1  0
  9  1  1  0
 10  1  1  0
 11 10  1  0
 12  3  1  0
 13  6  1  0
 14  8  1  0
 15 14  1  0
 16 12  2  0
 17 16  1  0
  5  4  1  0
 13 17  2  0
M  END
> <chembl_id>
CHEMBL306700

> <chembl_pref_name>
VILOXAZINE

$$$$

     RDKit          2D

 17 18  0  0  0  0  0  0  0  0999 V2000
   -1.1625   -0.6667    0.0000 N   0  0  0  0  0  0  0  0  0  0  0  0
   -2.1333   -1.3625    0.0000 N   0  0  0  0  0  0  0  0  0  0  0  0
   -1.5083    0.4833    0.0000 C   0  0  0  0  0  0  0  0  0  0  0  0
   -3.1000   -0.6125    0.0000 C   0  0  0  0  0  0  0  0  0  0  0  0
   -2.7125    0.4958    0.0000 C   0  0  0  0  0  0  0  0  0  0  0  0
   -0.0375   -1.0542    0.0000 C   0  0  0  0  0  0  0  0  0  0  0  0
    0.8667   -0.2667    0.0000 C   0  0  0  0  0  0  0  0  0  0  0  0
    1.9792   -0.6542    0.0000 C   0  0  0  0  0  0  0  0  0  0  0  0
    2.8792    0.1250    0.0000 C   0  0  0  0  0  0  0  0  0  0  0  0
   -0.7958    1.4458    0.0000 O   0  0  0  0  0  0  0  0  0  0  0  0
    2.6542    1.3000    0.0000 C   0  0  0  0  0  0  0  0  0  0  0  0
    0.6250    0.9000    0.0000 C   0  0  0  0  0  0  0  0  0  0  0  0
    1.5250    1.6875    0.0000 C   0  0  0  0  0  0  0  0  0  0  0  0
   -4.1958   -0.9750    0.0000 N   0  0  0  0  0  0  0  0  0  0  0  0
    4.0167   -0.2667    0.0000 Cl  0  0  0  0  0  0  0  0  0  0  0  0
    3.5542    2.0875    0.0000 Cl  0  0  0  0  0  0  0  0  0  0  0  0
    0.1917   -2.2167    0.0000 C   0  0  0  0  0  0  0  0  0  0  0  0
  2  1  1  0
  3  1  1  0
  4  2  2  0
  5  3  1  0
  6  1  1  0
  7  6  1  0
  8  7  1  0
  9  8  2  0
 10  3  2  0
 11 13  2  0
 12  7  2  0
 13 12  1  0
 14  4  1  0
 15  9  1  0
 16 11  1  0
 17  6  1  0
  5  4  1  0
  9 11  1  0
M  END
> <chembl_id>
CHEMBL1697760

> <chembl_pref_name>
MUZOLIMINE

$$$$

     RDKit          2D

 13 14  0  0  0  0  0  0  0  0999 V2000
   -7.4250  -21.0591    0.0000 C   0  0  0  0  0  0  0  0  0  0  0  0
   -8.1683  -21.4171    0.0000 C   0  0  0  0  0  0  0  0  0  0  0  0
   -8.3519  -22.2213    0.0000 C   0  0  0  0  0  0  0  0  0  0  0  0
   -7.8375  -22.8664    0.0000 C   0  0  0  0  0  0  0  0  0  0  0  0
   -7.0125  -22.8664    0.0000 C   0  0  0  0  0  0  0  0  0  0  0  0
   -6.4981  -22.2213    0.0000 N   0  0  0  0  0  0  0  0  0  0  0  0
   -6.6817  -21.4171    0.0000 C   0  0  0  0  0  0  0  0  0  0  0  0
   -8.7731  -20.8559    0.0000 C   0  0  0  0  0  0  0  0  0  0  0  0
   -9.5614  -21.0991    0.0000 C   0  0  0  0  0  0  0  0  0  0  0  0
   -9.7450  -21.9034    0.0000 C   0  0  0  0  0  0  0  0  0  0  0  0
   -9.1402  -22.4646    0.0000 C   0  0  0  0  0  0  0  0  0  0  0  0
   -8.1955  -23.6097    0.0000 C   0  0  0  0  0  0  0  0  0  0  0  0
  -10.5333  -22.1466    0.0000 Cl  0  0  0  0  0  0  0  0  0  0  0  0
  1  2  1  0
  7  1  1  0
  3  4  1  0
  4  5  1  0
  5  6  1  0
  6  7  1  0
  2  8  2  0
  3  2  1  0
 11  3  2  0
  8  9  1  0
  9 10  2  0
 10 11  1  0
  4 12  1  6
 10 13  1  0
M  END
> <chembl_id>
CHEMBL360328

> <chembl_pref_name>
LORCASERIN

$$$$

     RDKit          2D

  1  0  0  0  0  0  0  0  0  0999 V2000
   -0.0958    0.2500    0.0000 Kr  0  0  0  0  0 15  0  0  0  0  0  0
M  ISO  1   1  81
M  END
> <chembl_id>
CHEMBL1201096

> <chembl_pref_name>
KRYPTON KR 81M

$$$$

     RDKit          2D

 15 16  0  0  0  0  0  0  0  0999 V2000
    0.0000    1.4458    0.0000 C   0  0  0  0  0  0  0  0  0  0  0  0
    1.2375   -0.6792    0.0000 C   0  0  0  0  0  0  0  0  0  0  0  0
    1.2375    0.7333    0.0000 O   0  0  0  0  0  0  0  0  0  0  0  0
    0.0000   -1.3917    0.0000 C   0  0  0  0  0  0  0  0  0  0  0  0
   -1.2458    0.7333    0.0000 O   0  0  0  0  0  0  0  0  0  0  0  0
    0.0000    2.8708    0.0000 N   0  0  0  0  0  0  0  0  0  0  0  0
    0.0000   -2.8625    0.0000 C   0  0  0  0  0  0  0  0  0  0  0  0
    2.4792   -1.4375    0.0000 C   0  0  0  0  0  0  0  0  0  0  0  0
    2.4792   -2.8167    0.0000 C   0  0  0  0  0  0  0  0  0  0  0  0
   -1.2458   -0.6792    0.0000 C   0  0  0  0  0  0  0  0  0  0  0  0
    1.2375   -3.5750    0.0000 C   0  0  0  0  0  0  0  0  0  0  0  0
   -1.2458    3.5833    0.0000 C   0  0  0  0  0  0  0  0  0  0  0  0
   -1.2458   -3.5750    0.0000 C   0  0  0  0  0  0  0  0  0  0  0  0
   -2.4875   -1.4375    0.0000 C   0  0  0  0  0  0  0  0  0  0  0  0
   -2.4875   -2.8167    0.0000 C   0  0  0  0  0  0  0  0  0  0  0  0
  2  3  1  0
  3  1  1  0
  4  2  2  0
  5  1  2  0
  6  1  1  0
  7  4  1  0
  8  2  1  0
  9  8  2  0
 10  4  1  0
 11  9  1  0
 12  6  1  0
 13  7  1  0
 14 10  2  0
 15 14  1  0
  7 11  2  0
 13 15  2  0
M  END
> <chembl_id>
CHEMBL46917

> <chembl_pref_name>
CARBARIL

$$$$

     RDKit          2D

  9  8  0  0  0  0  0  0  0  0999 V2000
    1.3042   -0.5583    0.0000 Cl  0  0  0  0  0  0  0  0  0  0  0  0
    2.0167   -0.9708    0.0000 C   0  0  0  0  0  0  0  0  0  0  0  0
    2.7316   -0.5592    0.0000 C   0  0  0  0  0  0  0  0  0  0  0  0
    3.5539   -0.5592    0.0000 O   0  0  0  0  0  0  0  0  0  0  0  0
    3.1423    0.1557    0.0000 C   0  0  0  0  0  0  0  0  0  0  0  0
   -2.9417   -1.0292    0.0000 N   0  0  0  0  0  0  0  0  0  0  0  0
   -2.2292   -0.6125    0.0000 C   0  0  0  0  0  0  0  0  0  0  0  0
   -1.5124   -1.0210    0.0000 C   0  0  0  0  0  0  0  0  0  0  0  0
   -0.8002   -0.6045    0.0000 C   0  0  0  0  0  0  0  0  0  0  0  0
  1  2  1  0
  2  3  1  0
  4  3  1  0
  5  4  1  0
  3  5  1  0
  6  7  1  0
  7  8  1  0
  8  9  2  0
M  END
> <chembl_id>
CHEMBL1201798

> <chembl_pref_name>
SEVELAMER

$$$$

     RDKit          2D

 12 12  0  0  1  0  0  0  0  0999 V2000
   -0.2708   -0.3292    0.0000 C   0  0  0  0  0  0  0  0  0  0  0  0
    1.0667    0.1208    0.0000 C   0  0  0  0  0  0  0  0  0  0  0  0
   -1.3500    0.6000    0.0000 C   0  0  0  0  0  0  0  0  0  0  0  0
   -2.7208    0.1375    0.0000 N   0  0  0  0  0  0  0  0  0  0  0  0
   -0.5500   -1.7417    0.0000 O   0  0  0  0  0  0  0  0  0  0  0  0
    2.1542   -0.8125    0.0000 C   0  0  0  0  0  0  0  0  0  0  0  0
    1.3417    1.5208    0.0000 C   0  0  0  0  0  0  0  0  0  0  0  0
   -3.7958    1.0833    0.0000 C   0  0  0  0  0  0  0  0  0  0  0  0
   -1.0708    2.0208    0.0000 C   0  0  0  0  0  0  0  0  0  0  0  0
    3.5125   -0.3417    0.0000 C   0  0  0  0  0  0  0  0  0  0  0  0
    2.7125    1.9958    0.0000 C   0  0  0  0  0  0  0  0  0  0  0  0
    3.7917    1.0458    0.0000 C   0  0  0  0  0  0  0  0  0  0  0  0
  2  1  1  0
  3  1  1  0
  3  4  1  1
  1  5  1  1
  6  2  2  0
  7  2  1  0
  8  4  1  0
  9  3  1  0
 10  6  1  0
 11  7  2  0
 12 11  1  0
 10 12  2  0
M  END
> <chembl_id>
CHEMBL211456

> <chembl_pref_name>
EPHEDRINE

$$$$

     RDKit          2D

 18 20  0  0  0  0  0  0  0  0999 V2000
    6.0042   -5.5750    0.0000 C   0  0  0  0  0  0  0  0  0  0  0  0
    5.6292   -4.4625    0.0000 N   0  0  0  0  0  0  0  0  0  0  0  0
    6.5667   -5.1292    0.0000 N   0  0  0  0  0  0  0  0  0  0  0  0
    5.3792   -5.1792    0.0000 C   0  0  0  0  0  0  0  0  0  0  0  0
    6.0042   -6.2375    0.0000 C   0  0  0  0  0  0  0  0  0  0  0  0
    5.3875   -6.5917    0.0000 N   0  0  0  0  0  0  0  0  0  0  0  0
    6.3042   -4.4625    0.0000 C   0  0  0  0  0  0  0  0  0  0  0  0
    4.7667   -5.5292    0.0000 C   0  0  0  0  0  0  0  0  0  0  0  0
    4.7667   -6.2375    0.0000 C   0  0  0  0  0  0  0  0  0  0  0  0
    5.0167   -4.1042    0.0000 C   0  0  0  0  0  0  0  0  0  0  0  0
    6.6167   -6.5792    0.0000 N   0  0  0  0  0  0  0  0  0  0  0  0
    4.1500   -5.1792    0.0000 C   0  0  0  0  0  0  0  0  0  0  0  0
    4.1500   -6.5917    0.0000 C   0  0  0  0  0  0  0  0  0  0  0  0
    5.0167   -3.4250    0.0000 C   0  0  0  0  0  0  0  0  0  0  0  0
    4.4292   -3.0625    0.0000 C   0  0  0  0  0  0  0  0  0  0  0  0
    5.6292   -3.0625    0.0000 C   0  0  0  0  0  0  0  0  0  0  0  0
    3.5292   -5.5292    0.0000 C   0  0  0  0  0  0  0  0  0  0  0  0
    3.5292   -6.2375    0.0000 C   0  0  0  0  0  0  0  0  0  0  0  0
  2  4  1  0
  3  1  1  0
  4  1  1  0
  5  1  2  0
  6  5  1  0
  7  3  2  0
  8  4  2  0
  9  6  2  0
 10  2  1  0
 11  5  1  0
 12  8  1  0
 13  9  1  0
 14 10  1  0
 15 14  1  0
 16 14  1  0
 17 12  2  0
 18 13  2  0
  7  2  1  0
  9  8  1  0
 18 17  1  0
M  END
> <chembl_id>
CHEMBL1282

> <chembl_pref_name>
IMIQUIMOD

$$$$

     RDKit          2D

 21 23  0  0  0  0  0  0  0  0999 V2000
   -0.5583   -0.0542    0.0000 C   0  0  0  0  0  0  0  0  0  0  0  0
   -1.5000    0.4833    0.0000 C   0  0  0  0  0  0  0  0  0  0  0  0
   -0.5375   -1.2000    0.0000 O   0  0  0  0  0  0  0  0  0  0  0  0
   -2.4458   -0.0542    0.0000 C   0  0  0  0  0  0  0  0  0  0  0  0
    0.3667    0.4500    0.0000 O   0  0  0  0  0  0  0  0  0  0  0  0
   -1.5000    1.5833    0.0000 O   0  0  0  0  0  0  0  0  0  0  0  0
   -2.4458   -1.1542    0.0000 C   0  0  0  0  0  0  0  0  0  0  0  0
   -3.4000    0.4833    0.0000 C   0  0  0  0  0  0  0  0  0  0  0  0
   -3.4000   -1.7000    0.0000 C   0  0  0  0  0  0  0  0  0  0  0  0
   -4.3458   -0.0542    0.0000 C   0  0  0  0  0  0  0  0  0  0  0  0
   -4.3458   -1.1542    0.0000 C   0  0  0  0  0  0  0  0  0  0  0  0
    2.3292   -0.2417    0.0000 N   0  0  0  0  0  0  0  0  0  0  0  0
    2.5417   -0.8542    0.0000 N   0  0  0  0  0  0  0  0  0  0  0  0
    4.2625   -0.3417    0.0000 N   0  0  0  0  0  0  0  0  0  0  0  0
    3.2792    1.1500    0.0000 N   0  0  0  0  0  0  0  0  0  0  0  0
    1.4667   -1.1500    0.0000 C   0  0  0  0  0  0  0  0  0  0  0  0
    3.2667   -0.5917    0.0000 C   0  0  0  0  0  0  0  0  0  0  0  0
    2.3167    0.8083    0.0000 C   0  0  0  0  0  0  0  0  0  0  0  0
    3.5375   -1.2542    0.0000 C   0  0  0  0  0  0  0  0  0  0  0  0
    2.5375    0.2708    0.0000 C   0  0  0  0  0  0  0  0  0  0  0  0
    4.2667    0.7458    0.0000 C   0  0  0  0  0  0  0  0  0  0  0  0
  2  1  1  0
  3  1  2  0
  4  2  1  0
  5  1  1  0
  6  2  1  0
  7  4  1  0
  8  4  2  0
  9  7  2  0
 10  8  1  0
 11 10  2  0
  9 11  1  0
 13 16  1  0
 14 17  1  0
 15 18  1  0
 16 12  1  0
 17 12  1  0
 18 12  1  0
 19 14  1  0
 20 15  1  0
 21 15  1  0
 14 21  1  0
 13 20  1  0
 13 19  1  0
M  END
> <chembl_id>
CHEMBL3833312

> <chembl_pref_name>
METHENAMINE MANDELATE

$$$$

     RDKit          2D

 16 17  0  0  1  0  0  0  0  0999 V2000
    0.5792   -0.1917    0.0000 C   0  0  0  0  0  0  0  0  0  0  0  0
   -0.7333   -0.1917    0.0000 C   0  0  0  0  0  0  0  0  0  0  0  0
   -0.0750   -2.2250    0.0000 N   0  0  0  0  0  0  0  0  0  0  0  0
    0.9917   -1.4500    0.0000 C   0  0  0  0  0  0  0  0  0  0  0  0
    3.5542    1.4458    0.0000 C   0  0  0  0  0  0  0  0  0  0  0  0
    1.3542    0.8708    0.0000 C   0  0  0  0  0  0  0  0  0  0  0  0
   -1.1458   -1.4500    0.0000 C   0  0  0  0  0  0  0  0  0  0  0  0
    2.6500    0.4875    0.0000 C   0  0  0  0  0  0  0  0  0  0  0  0
   -1.6208    0.7833    0.0000 C   0  0  0  0  0  0  0  0  0  0  0  0
    4.8917    1.1500    0.0000 O   0  0  0  0  0  0  0  0  0  0  0  0
   -2.4333   -1.7167    0.0000 C   0  0  0  0  0  0  0  0  0  0  0  0
   -2.9083    0.5083    0.0000 C   0  0  0  0  0  0  0  0  0  0  0  0
    3.0917   -0.7542    0.0000 N   0  0  0  0  0  0  0  0  0  0  0  0
    3.2125    2.6750    0.0000 O   0  0  0  0  0  0  0  0  0  0  0  0
   -3.3125   -0.7417    0.0000 C   0  0  0  0  0  0  0  0  0  0  0  0
   -3.7875    1.4875    0.0000 O   0  0  0  0  0  0  0  0  0  0  0  0
  2  1  1  0
  3  4  1  0
  4  1  2  0
  5  8  1  0
  6  1  1  0
  7  2  2  0
  8  6  1  0
  9  2  1  0
 10  5  2  0
 11  7  1  0
 12  9  2  0
  8 13  1  1
 14  5  1  0
 15 12  1  0
 16 12  1  0
  7  3  1  0
 11 15  2  0
M  END
> <chembl_id>
CHEMBL350221

> <chembl_pref_name>
OXITRIPTAN

$$$$

     RDKit          2D

 16 16  0  0  0  0  0  0  0  0999 V2000
   -1.6833    0.0083    0.0000 C   0  0  0  0  0  0  0  0  0  0  0  0
   -2.6583    0.0208    0.0000 C   0  0  0  0  0  0  0  0  0  0  0  0
   -1.1750   -0.8792    0.0000 N   0  0  0  0  0  0  0  0  0  0  0  0
   -1.1750    0.8583    0.0000 O   0  0  0  0  0  0  0  0  0  0  0  0
   -0.1583   -0.8667    0.0000 C   0  0  0  0  0  0  0  0  0  0  0  0
    1.8375   -0.8667    0.0000 C   0  0  0  0  0  0  0  0  0  0  0  0
   -3.1500    0.8708    0.0000 C   0  0  0  0  0  0  0  0  0  0  0  0
    0.3375    0.0000    0.0000 C   0  0  0  0  0  0  0  0  0  0  0  0
    0.3375   -1.7292    0.0000 C   0  0  0  0  0  0  0  0  0  0  0  0
    1.3292   -1.7292    0.0000 C   0  0  0  0  0  0  0  0  0  0  0  0
    1.3375    0.0000    0.0000 C   0  0  0  0  0  0  0  0  0  0  0  0
    2.8500   -0.8792    0.0000 O   0  0  0  0  0  0  0  0  0  0  0  0
   -4.1583    0.8708    0.0000 O   0  0  0  0  0  0  0  0  0  0  0  0
    3.3375    0.0000    0.0000 C   0  0  0  0  0  0  0  0  0  0  0  0
   -2.6583    1.7333    0.0000 C   0  0  0  0  0  0  0  0  0  0  0  0
    4.3417    0.0000    0.0000 C   0  0  0  0  0  0  0  0  0  0  0  0
  2  1  1  0
  3  1  1  0
  4  1  2  0
  5  3  1  0
  6 10  2  0
  7  2  1  0
  8  5  1  0
  9  5  2  0
 10  9  1  0
 11  8  2  0
 12  6  1  0
 13  7  1  0
 14 12  1  0
 15  7  1  0
 16 14  1  0
 11  6  1  0
M  END
> <chembl_id>
CHEMBL1697856

> <chembl_pref_name>
BUCETIN

$$$$

     RDKit          2D

 20 21  0  0  0  0  0  0  0  0999 V2000
    4.7417   -7.1875    0.0000 C   0  0  0  0  0  0  0  0  0  0  0  0
    4.1250   -7.5792    0.0000 C   0  0  0  0  0  0  0  0  0  0  0  0
    4.7417   -6.4875    0.0000 C   0  0  0  0  0  0  0  0  0  0  0  0
    5.3542   -7.5375    0.0000 C   0  0  0  0  0  0  0  0  0  0  0  0
    5.3542   -6.1292    0.0000 C   0  0  0  0  0  0  0  0  0  0  0  0
    4.1292   -6.1292    0.0000 C   0  0  0  0  0  0  0  0  0  0  0  0
    5.9542   -7.1792    0.0000 N   0  0  0  0  0  0  0  0  0  0  0  0
    4.7750   -8.0125    0.0000 O   0  0  0  0  0  0  0  0  0  0  0  0
    4.7417   -5.0625    0.0000 C   0  0  0  0  0  0  0  0  0  0  0  0
    4.1292   -5.4167    0.0000 C   0  0  0  0  0  0  0  0  0  0  0  0
    5.3542   -5.4167    0.0000 C   0  0  0  0  0  0  0  0  0  0  0  0
    4.7417   -4.3625    0.0000 O   0  0  0  0  0  0  0  0  0  0  0  0
    3.5125   -7.2417    0.0000 C   0  0  0  0  0  0  0  0  0  0  0  0
    4.1250   -8.2917    0.0000 C   0  0  0  0  0  0  0  0  0  0  0  0
    6.5750   -7.5167    0.0000 C   0  0  0  0  0  0  0  0  0  0  0  0
    5.9542   -6.4792    0.0000 C   0  0  0  0  0  0  0  0  0  0  0  0
    5.3542   -4.0250    0.0000 C   0  0  0  0  0  0  0  0  0  0  0  0
    2.9042   -7.5792    0.0000 C   0  0  0  0  0  0  0  0  0  0  0  0
    3.5125   -8.6667    0.0000 C   0  0  0  0  0  0  0  0  0  0  0  0
    2.9042   -8.2917    0.0000 C   0  0  0  0  0  0  0  0  0  0  0  0
  2  1  1  0
  3  1  1  0
  4  1  1  0
  5  3  1  0
  6  3  2  0
  7  4  1  0
  8  2  1  0
  9 10  2  0
 10  6  1  0
 11  5  2  0
 12  9  1  0
 13  2  1  0
 14  2  1  0
 15  7  1  0
 16  7  1  0
 17 12  1  0
 18 13  1  0
 19 14  1  0
 20 18  1  0
  9 11  1  0
 20 19  1  0
M  END
> <chembl_id>
CHEMBL637

> <chembl_pref_name>
VENLAFAXINE

$$$$

     RDKit          2D

  2  0  0  0  0  0  0  0  0  0999 V2000
   -2.1583   -2.2167    0.0000 Rb  0  0  0  0  0 15  0  0  0  0  0  0
   -1.1708   -2.2000    0.0000 Cl  0  0  0  0  0  0  0  0  0  0  0  0
M  CHG  2   1   1   2  -1
M  END
> <chembl_id>
CHEMBL2110557

> <chembl_pref_name>
RUBIDIUM CHLORIDE

$$$$

     RDKit          2D

 19 20  0  0  0  0  0  0  0  0999 V2000
    0.0000    0.0083    0.0000 C   0  0  0  0  0  0  0  0  0  0  0  0
    0.7875   -0.6000    0.0000 N   0  0  0  0  0  0  0  0  0  0  0  0
    1.6042   -0.0292    0.0000 C   0  0  0  0  0  0  0  0  0  0  0  0
    0.3375    0.9583    0.0000 C   0  0  0  0  0  0  0  0  0  0  0  0
   -0.9208   -0.3417    0.0000 C   0  0  0  0  0  0  0  0  0  0  0  0
    2.5417   -0.3625    0.0000 C   0  0  0  0  0  0  0  0  0  0  0  0
    1.3292    0.9333    0.0000 C   0  0  0  0  0  0  0  0  0  0  0  0
    3.4042    0.1458    0.0000 C   0  0  0  0  0  0  0  0  0  0  0  0
   -1.7708    0.1333    0.0000 C   0  0  0  0  0  0  0  0  0  0  0  0
   -0.9208   -1.3542    0.0000 O   0  0  0  0  0  0  0  0  0  0  0  0
    3.4000    1.1333    0.0000 O   0  0  0  0  0  0  0  0  0  0  0  0
   -2.6125   -0.3667    0.0000 C   0  0  0  0  0  0  0  0  0  0  0  0
   -1.7833    1.1208    0.0000 C   0  0  0  0  0  0  0  0  0  0  0  0
    0.7542   -1.5917    0.0000 C   0  0  0  0  0  0  0  0  0  0  0  0
    4.2667   -0.3542    0.0000 O   0  0  0  0  0  0  0  0  0  0  0  0
   -3.4708    0.1083    0.0000 C   0  0  0  0  0  0  0  0  0  0  0  0
   -2.6458    1.6000    0.0000 C   0  0  0  0  0  0  0  0  0  0  0  0
   -3.4875    1.0958    0.0000 C   0  0  0  0  0  0  0  0  0  0  0  0
   -4.3458    1.5833    0.0000 C   0  0  0  0  0  0  0  0  0  0  0  0
  2  1  1  0
  3  2  1  0
  4  1  2  0
  5  1  1  0
  6  3  1  0
  7  4  1  0
  8  6  1  0
  9  5  1  0
 10  5  2  0
 11  8  2  0
 12  9  1  0
 13  9  2  0
 14  2  1  0
 15  8  1  0
 16 12  2  0
 17 13  1  0
 18 17  2  0
 19 18  1  0
  3  7  2  0
 16 18  1  0
M  END
> <chembl_id>
CHEMBL1020

> <chembl_pref_name>
TOLMETIN

$$$$

     RDKit          2D

 10 10  0  0  0  0  0  0  0  0999 V2000
   -5.3846    1.0607    0.0000 C   0  0  0  0  0  0  0  0  0  0  0  0
   -6.0991    1.4732    0.0000 O   0  0  0  0  0  0  0  0  0  0  0  0
   -6.8136    1.0607    0.0000 C   0  0  0  0  0  0  0  0  0  0  0  0
   -6.8136    0.2357    0.0000 C   0  0  0  0  0  0  0  0  0  0  0  0
   -6.0991   -0.1768    0.0000 C   0  0  0  0  0  0  0  0  0  0  0  0
   -5.3846    0.2357    0.0000 C   0  0  0  0  0  0  0  0  0  0  0  0
   -7.5281   -0.1768    0.0000 O   0  0  0  0  0  0  0  0  0  0  0  0
   -4.6701    1.4732    0.0000 O   0  0  0  0  0  0  0  0  0  0  0  0
   -4.6702   -0.1768    0.0000 O   0  0  0  0  0  0  0  0  0  0  0  0
   -6.0991   -1.0018    0.0000 O   0  0  0  0  0  0  0  0  0  0  0  0
  1  2  1  0
  6  1  1  0
  2  3  1  0
  3  4  1  0
  4  5  1  0
  5  6  1  0
  4  7  1  6
  1  8  1  0
  6  9  1  6
  5 10  1  1
M  END
> <chembl_id>
CHEMBL502135

> <chembl_pref_name>
XYLOSE

$$$$

     RDKit          2D

 22 24  0  0  0  0  0  0  0  0999 V2000
    0.7917    0.4750    0.0000 N   0  0  0  0  0  0  0  0  0  0  0  0
    1.0333   -0.3125    0.0000 C   0  0  0  0  0  0  0  0  0  0  0  0
    0.5667   -0.9958    0.0000 C   0  0  0  0  0  0  0  0  0  0  0  0
    1.3958    1.0375    0.0000 C   0  0  0  0  0  0  0  0  0  0  0  0
   -0.2542   -1.0583    0.0000 C   0  0  0  0  0  0  0  0  0  0  0  0
    0.0208    0.7750    0.0000 C   0  0  0  0  0  0  0  0  0  0  0  0
   -0.6917    0.3625    0.0000 C   0  0  0  0  0  0  0  0  0  0  0  0
   -0.8167   -0.4500    0.0000 C   0  0  0  0  0  0  0  0  0  0  0  0
   -0.8375   -1.6417    0.0000 O   0  0  0  0  0  0  0  0  0  0  0  0
   -1.6333   -1.4250    0.0000 C   0  0  0  0  0  0  0  0  0  0  0  0
    1.2125    1.8417    0.0000 O   0  0  0  0  0  0  0  0  0  0  0  0
   -1.8500   -0.6292    0.0000 O   0  0  0  0  0  0  0  0  0  0  0  0
    2.1833    0.7917    0.0000 N   0  0  0  0  0  0  0  0  0  0  0  0
    1.8542   -0.3750    0.0000 C   0  0  0  0  0  0  0  0  0  0  0  0
    0.9250   -1.7375    0.0000 C   0  0  0  0  0  0  0  0  0  0  0  0
    0.0208    1.6000    0.0000 C   0  0  0  0  0  0  0  0  0  0  0  0
   -1.4083    0.7750    0.0000 C   0  0  0  0  0  0  0  0  0  0  0  0
   -2.2167   -2.0083    0.0000 C   0  0  0  0  0  0  0  0  0  0  0  0
    2.2125   -1.1167    0.0000 C   0  0  0  0  0  0  0  0  0  0  0  0
    1.7500   -1.8000    0.0000 C   0  0  0  0  0  0  0  0  0  0  0  0
   -0.6917    2.0125    0.0000 C   0  0  0  0  0  0  0  0  0  0  0  0
   -1.4083    1.6000    0.0000 C   0  0  0  0  0  0  0  0  0  0  0  0
  2  1  1  0
  3  2  2  0
  4  1  1  0
  5  3  1  0
  6  1  1  0
  7  6  2  0
  8  7  1  0
  5  9  1  1
 10  9  1  0
 11  4  2  0
 12 10  2  0
 13  4  1  0
 14  2  1  0
 15  3  1  0
 16  6  1  0
 17  7  1  0
 18 10  1  0
 19 14  2  0
 20 19  1  0
 21 16  2  0
 22 21  1  0
  5  8  1  0
 17 22  2  0
 20 15  2  0
M  END
> <chembl_id>
CHEMBL87992

> <chembl_pref_name>
ESLICARBAZEPINE ACETATE

$$$$

     RDKit          2D

 18 17  0  0  0  0  0  0  0  0999 V2000
    9.3625   -5.9667    0.0000 Cl  0  0  0  0  0  0  0  0  0  0  0  0
    7.2625   -5.9417    0.0000 C   0  0  0  0  0  0  0  0  0  0  0  0
    7.8542   -6.3667    0.0000 N   0  0  0  0  0  0  0  0  0  0  0  0
    2.3292   -5.7125    0.0000 C   0  0  0  0  0  0  0  0  0  0  0  0
    3.5542   -5.8167    0.0000 C   0  0  0  0  0  0  0  0  0  0  0  0
    2.9292   -6.1250    0.0000 N   0  0  0  0  0  0  0  0  0  0  0  0
    7.4917   -5.2667    0.0000 C   0  0  0  0  0  0  0  0  0  0  0  0
    1.7500   -5.3042    0.0000 N   0  0  0  0  0  0  0  0  0  0  0  0
    8.4042   -5.9500    0.0000 C   0  0  0  0  0  0  0  0  0  0  0  0
    8.1792   -5.2667    0.0000 N   0  0  0  0  0  0  0  0  0  0  0  0
    4.1542   -6.2375    0.0000 N   0  0  0  0  0  0  0  0  0  0  0  0
    3.5542   -5.1000    0.0000 N   0  0  0  0  0  0  0  0  0  0  0  0
    6.6292   -6.2417    0.0000 C   0  0  0  0  0  0  0  0  0  0  0  0
    6.0375   -5.9167    0.0000 S   0  0  0  0  0  0  0  0  0  0  0  0
    7.0917   -4.6875    0.0000 C   0  0  0  0  0  0  0  0  0  0  0  0
    4.7667   -5.8792    0.0000 C   0  0  0  0  0  0  0  0  0  0  0  0
    5.4042   -6.2292    0.0000 C   0  0  0  0  0  0  0  0  0  0  0  0
    4.1750   -4.7542    0.0000 C   0  0  0  0  0  0  0  0  0  0  0  0
  3  2  1  0
  4  6  1  0
  5 11  2  0
  6  5  1  0
  7  2  2  0
  8  4  3  0
  9  3  2  0
 10  7  1  0
 11 16  1  0
 12  5  1  0
 13  2  1  0
 14 13  1  0
 15  7  1  0
 16 17  1  0
 17 14  1  0
 18 12  1  0
 10  9  1  0
M  END
> <chembl_id>
CHEMBL1201051

> <chembl_pref_name>
CIMETIDINE HYDROCHLORIDE

$$$$

     RDKit          2D

 14 14  0  0  0  0  0  0  0  0999 V2000
   -6.0584    1.3314    0.0000 C   0  0  0  0  0  0  0  0  0  0  0  0
   -6.7729    0.9190    0.0000 C   0  0  0  0  0  0  0  0  0  0  0  0
   -6.7729    0.0940    0.0000 C   0  0  0  0  0  0  0  0  0  0  0  0
   -6.0584   -0.3185    0.0000 C   0  0  0  0  0  0  0  0  0  0  0  0
   -5.3440    0.0940    0.0000 C   0  0  0  0  0  0  0  0  0  0  0  0
   -5.3440    0.9190    0.0000 C   0  0  0  0  0  0  0  0  0  0  0  0
   -4.6521    1.3683    0.0000 C   0  0  0  0  0  0  0  0  0  0  0  0
   -3.9376    0.9558    0.0000 C   0  0  0  0  0  0  0  0  0  0  0  0
   -3.2231    1.3683    0.0000 C   0  0  0  0  0  0  0  0  0  0  0  0
   -2.5311    0.9190    0.0000 O   0  0  0  0  0  0  0  0  0  0  0  0
   -1.8392    1.3683    0.0000 C   0  0  0  0  0  0  0  0  0  0  0  0
   -1.8392    2.1932    0.0000 O   0  0  0  0  0  0  0  0  0  0  0  0
   -1.1474    0.9190    0.0000 N   0  0  0  0  0  0  0  0  0  0  0  0
   -3.8944    0.1320    0.0000 N   0  0  0  0  0  0  0  0  0  0  0  0
  1  2  1  0
  2  3  2  0
  3  4  1  0
  4  5  2  0
  5  6  1  0
  1  6  2  0
  6  7  1  0
  7  8  1  0
  8  9  1  0
  9 10  1  0
 10 11  1  0
 11 12  2  0
 11 13  1  0
  8 14  1  6
M  END
> <chembl_id>
CHEMBL4297620

> <chembl_pref_name>
SOLRIAMFETOL

$$$$

     RDKit          2D

 10  9  0  0  0  0  0  0  0  0999 V2000
    3.8167   -4.9667    0.0000 N   0  0  0  0  0  0  0  0  0  0  0  0
    6.2667   -5.0000    0.0000 C   0  0  0  0  0  0  0  0  0  0  0  0
    6.2625   -5.7125    0.0000 O   0  0  0  0  0  0  0  0  0  0  0  0
    5.6542   -4.6375    0.0000 O   0  0  0  0  0  0  0  0  0  0  0  0
    5.0417   -4.9875    0.0000 C   0  0  0  0  0  0  0  0  0  0  0  0
    4.4292   -4.6250    0.0000 C   0  0  0  0  0  0  0  0  0  0  0  0
    3.4625   -5.5792    0.0000 C   0  0  0  0  0  0  0  0  0  0  0  0
    4.1667   -5.5792    0.0000 C   0  0  0  0  0  0  0  0  0  0  0  0
    3.2083   -4.6083    0.0000 C   0  0  0  0  0  0  0  0  0  0  0  0
    6.8917   -4.6500    0.0000 C   0  0  0  0  0  0  0  0  0  0  0  0
  2  4  1  0
  3  2  2  0
  4  5  1  0
  5  6  1  0
  6  1  1  0
  7  1  1  0
  8  1  1  0
  9  1  1  0
 10  2  1  0
M  CHG  1   1   1
M  END
> <chembl_id>
CHEMBL667

> <chembl_pref_name>
ACETYLCHOLINE

$$$$

     RDKit          2D

 16 17  0  0  0  0  0  0  0  0999 V2000
    3.6292   -7.4417    0.0000 N   0  0  0  0  0  0  0  0  0  0  0  0
    4.2375   -7.0875    0.0000 C   0  0  0  0  0  0  0  0  0  0  0  0
    4.8542   -7.4417    0.0000 C   0  0  0  0  0  0  0  0  0  0  0  0
    5.4625   -7.0792    0.0000 N   0  0  0  0  0  0  0  0  0  0  0  0
    6.0750   -7.4375    0.0000 N   0  0  0  0  0  0  0  0  0  0  0  0
    3.6292   -8.1542    0.0000 C   0  0  0  0  0  0  0  0  0  0  0  0
    4.8542   -8.1500    0.0000 C   0  0  0  0  0  0  0  0  0  0  0  0
    4.2292   -6.3875    0.0000 N   0  0  0  0  0  0  0  0  0  0  0  0
    4.2500   -8.5042    0.0000 C   0  0  0  0  0  0  0  0  0  0  0  0
    3.0125   -8.5167    0.0000 N   0  0  0  0  0  0  0  0  0  0  0  0
    6.6917   -7.0792    0.0000 C   0  0  0  0  0  0  0  0  0  0  0  0
    6.6792   -6.3667    0.0000 C   0  0  0  0  0  0  0  0  0  0  0  0
    7.3042   -7.4292    0.0000 C   0  0  0  0  0  0  0  0  0  0  0  0
    7.3042   -6.0042    0.0000 C   0  0  0  0  0  0  0  0  0  0  0  0
    7.9250   -7.0750    0.0000 C   0  0  0  0  0  0  0  0  0  0  0  0
    7.9250   -6.3625    0.0000 C   0  0  0  0  0  0  0  0  0  0  0  0
  2  1  2  0
  3  2  1  0
  4  3  1  0
  5  4  2  0
  6  1  1  0
  7  9  1  0
  8  2  1  0
  9  6  2  0
 10  6  1  0
 11  5  1  0
 12 11  1  0
 13 11  2  0
 14 12  2  0
 15 13  1  0
 16 14  1  0
  7  3  2  0
 16 15  2  0
M  END
> <chembl_id>
CHEMBL1242

> <chembl_pref_name>
PHENAZOPYRIDINE

$$$$

     RDKit          2D

  5  3  0  0  0  0  0  0  0  0999 V2000
    5.9542   -6.7792    0.0000 Na  0  0  0  0  0 15  0  0  0  0  0  0
    4.7542   -6.4250    0.0000 C   0  0  0  0  0  0  0  0  0  0  0  0
    5.3500   -6.7917    0.0000 O   0  0  0  0  0  0  0  0  0  0  0  0
    4.7542   -5.7042    0.0000 O   0  0  0  0  0  0  0  0  0  0  0  0
    4.1292   -6.7750    0.0000 O   0  0  0  0  0  0  0  0  0  0  0  0
  3  2  1  0
  4  2  2  0
  5  2  1  0
M  CHG  2   1   1   3  -1
M  END
> <chembl_id>
CHEMBL1353

> <chembl_pref_name>
SODIUM BICARBONATE

$$$$

     RDKit          2D

 18 19  0  0  0  0  0  0  0  0999 V2000
   -2.9625   -2.3125    0.0000 C   0  0  0  0  0  0  0  0  0  0  0  0
    1.8417   -2.2917    0.0000 N   0  0  0  0  0  0  0  0  0  0  0  0
   -2.9625   -0.9292    0.0000 C   0  0  0  0  0  0  0  0  0  0  0  0
   -4.1708   -3.0125    0.0000 O   0  0  0  0  0  0  0  0  0  0  0  0
   -1.7625   -3.0000    0.0000 N   0  0  0  0  0  0  0  0  0  0  0  0
    4.2417   -0.8875    0.0000 O   0  0  0  0  0  0  0  0  0  0  0  0
   -1.7458   -0.2167    0.0000 C   0  0  0  0  0  0  0  0  0  0  0  0
   -4.1833   -0.2167    0.0000 C   0  0  0  0  0  0  0  0  0  0  0  0
   -2.9458    1.8458    0.0000 C   0  0  0  0  0  0  0  0  0  0  0  0
   -4.1833    1.1500    0.0000 C   0  0  0  0  0  0  0  0  0  0  0  0
   -1.7458    1.1500    0.0000 C   0  0  0  0  0  0  0  0  0  0  0  0
   -2.9333    3.1083    0.0000 Cl  0  0  0  0  0  0  0  0  0  0  0  0
   -0.5583   -2.2792    0.0000 C   0  0  0  0  0  0  0  0  0  0  0  0
    0.6417   -2.9917    0.0000 C   0  0  0  0  0  0  0  0  0  0  0  0
    1.8375   -0.8875    0.0000 C   0  0  0  0  0  0  0  0  0  0  0  0
    3.0500   -2.9792    0.0000 C   0  0  0  0  0  0  0  0  0  0  0  0
    3.0375   -0.2042    0.0000 C   0  0  0  0  0  0  0  0  0  0  0  0
    4.2417   -2.2667    0.0000 C   0  0  0  0  0  0  0  0  0  0  0  0
  2 14  1  0
  3  1  1  0
  4  1  2  0
  5  1  1  0
  6 18  1  0
  7  3  2  0
  8  3  1  0
  9 10  1  0
 10  8  2  0
 11  7  1  0
 12  9  1  0
 13  5  1  0
 14 13  1  0
 15  2  1  0
 16  2  1  0
 17 15  1  0
 18 16  1  0
 11  9  2  0
 17  6  1  0
M  END
> <chembl_id>
CHEMBL86304

> <chembl_pref_name>
MOCLOBEMIDE

$$$$

     RDKit          2D

 17 18  0  0  0  0  0  0  0  0999 V2000
    5.3532    2.2665    0.0000 C   0  0  0  0  0  0  0  0  0  0  0  0
    6.0134    1.7743    0.0000 N   0  0  0  0  0  0  0  0  0  0  0  0
    6.6869    2.2540    0.0000 C   0  0  0  0  0  0  0  0  0  0  0  0
    6.4392    3.0437    0.0000 C   0  0  0  0  0  0  0  0  0  0  0  0
    5.6149    3.0475    0.0000 C   0  0  0  0  0  0  0  0  0  0  0  0
    5.5977    1.0615    0.0000 C   0  0  0  0  0  0  0  0  0  0  0  0
    6.4229    1.0615    0.0000 C   0  0  0  0  0  0  0  0  0  0  0  0
    7.2480    1.0581    0.0000 C   0  0  0  0  0  0  0  0  0  0  0  0
    7.6556    0.3413    0.0000 C   0  0  0  0  0  0  0  0  0  0  0  0
    8.4807    0.3381    0.0000 C   0  0  0  0  0  0  0  0  0  0  0  0
    8.8925   -0.3788    0.0000 C   0  0  0  0  0  0  0  0  0  0  0  0
    9.7176   -0.3820    0.0000 N   0  0  0  0  0  0  0  0  0  0  0  0
   10.1927   -1.0482    0.0000 C   0  0  0  0  0  0  0  0  0  0  0  0
   10.9787   -0.7977    0.0000 C   0  0  0  0  0  0  0  0  0  0  0  0
   10.9820    0.0276    0.0000 C   0  0  0  0  0  0  0  0  0  0  0  0
   10.1981    0.2842    0.0000 C   0  0  0  0  0  0  0  0  0  0  0  0
    9.2964   -1.0947    0.0000 C   0  0  0  0  0  0  0  0  0  0  0  0
  3  4  1  0
  8  9  1  0
  4  5  1  0
  9 10  1  0
  5  1  1  0
 10 11  1  0
  1  2  1  0
 11 12  1  0
 12 13  1  0
  2  6  1  0
  2  7  1  0
  2  3  1  0
 13 14  1  0
 14 15  1  0
 15 16  1  0
 16 12  1  0
  7  8  1  0
 12 17  1  0
M  CHG  2   2   1  12   1
M  END
> <chembl_id>
CHEMBL1271

> <chembl_pref_name>
PENTOLINIUM

$$$$

     RDKit          2D

 17 17  0  0  0  0  0  0  0  0999 V2000
    3.1667    0.7375    0.0000 C   0  0  0  0  0  0  0  0  0  0  0  0
    2.1625    0.5083    0.0000 N   0  0  0  0  0  0  0  0  0  0  0  0
    1.1250    1.2375    0.0000 C   0  0  0  0  0  0  0  0  0  0  0  0
    3.4000    1.6125    0.0000 O   0  0  0  0  0  0  0  0  0  0  0  0
    0.5417    0.2833    0.0000 C   0  0  0  0  0  0  0  0  0  0  0  0
    3.8417   -0.0792    0.0000 O   0  0  0  0  0  0  0  0  0  0  0  0
   -0.6333    0.2833    0.0000 C   0  0  0  0  0  0  0  0  0  0  0  0
   -2.9583    0.3125    0.0000 C   0  0  0  0  0  0  0  0  0  0  0  0
   -4.1333    0.3208    0.0000 Cl  0  0  0  0  0  0  0  0  0  0  0  0
   -2.3958   -0.7042    0.0000 C   0  0  0  0  0  0  0  0  0  0  0  0
   -2.3833    1.3083    0.0000 C   0  0  0  0  0  0  0  0  0  0  0  0
   -1.2000    1.3083    0.0000 C   0  0  0  0  0  0  0  0  0  0  0  0
   -1.2208   -0.7042    0.0000 C   0  0  0  0  0  0  0  0  0  0  0  0
    0.2167    1.8500    0.0000 C   0  0  0  0  0  0  0  0  0  0  0  0
    1.7042    2.0625    0.0000 C   0  0  0  0  0  0  0  0  0  0  0  0
    3.5500   -1.2042    0.0000 C   0  0  0  0  0  0  0  0  0  0  0  0
    4.3417   -2.0542    0.0000 C   0  0  0  0  0  0  0  0  0  0  0  0
  2  1  1  0
  3  2  1  0
  4  1  2  0
  5  3  1  0
  6  1  1  0
  7  5  1  0
  8 10  1  0
  9  8  1  0
 10 13  2  0
 11 12  1  0
 12  7  2  0
 13  7  1  0
 14  3  1  0
 15  3  1  0
 16  6  1  0
 17 16  1  0
 11  8  2  0
M  END
> <chembl_id>
CHEMBL1697686

> <chembl_pref_name>
CLOFOREX

$$$$

     RDKit          2D

 12 12  0  0  0  0  0  0  0  0999 V2000
    2.5917    0.9875    0.0000 S   0  0  0  0  0  0  0  0  0  0  0  0
    2.5917    0.0458    0.0000 C   0  0  0  0  0  0  0  0  0  0  0  0
    3.4167   -0.4292    0.0000 C   0  0  0  0  0  0  0  0  0  0  0  0
    1.5667    0.9875    0.0000 O   0  0  0  0  0  0  0  0  0  0  0  0
    3.5292    0.9875    0.0000 O   0  0  0  0  0  0  0  0  0  0  0  0
    2.5917    1.9708    0.0000 O   0  0  0  0  0  0  0  0  0  0  0  0
    1.7750   -0.4292    0.0000 C   0  0  0  0  0  0  0  0  0  0  0  0
    1.7750   -1.4000    0.0000 C   0  0  0  0  0  0  0  0  0  0  0  0
    3.4167   -1.4000    0.0000 C   0  0  0  0  0  0  0  0  0  0  0  0
    2.5917   -1.8792    0.0000 C   0  0  0  0  0  0  0  0  0  0  0  0
    0.9250    0.0458    0.0000 O   0  0  0  0  0  0  0  0  0  0  0  0
    4.2375   -1.8792    0.0000 O   0  0  0  0  0  0  0  0  0  0  0  0
  2  1  1  0
  3  2  1  0
  4  1  1  0
  5  1  2  0
  6  1  2  0
  7  2  2  0
  8  7  1  0
  9  3  2  0
 10  8  2  0
 11  7  1  0
 12  9  1  0
  9 10  1  0
M  END
> <chembl_id>
CHEMBL1232131

> <chembl_pref_name>
DOBESILIC ACID

$$$$

     RDKit          2D

 10  9  0  0  0  0  0  0  0  0999 V2000
   -2.9038  -13.9854    0.0000 N   0  0  0  0  0  0  0  0  0  0  0  0
   -3.6183  -14.3979    0.0000 C   0  0  0  0  0  0  0  0  0  0  0  0
   -3.3163  -13.2709    0.0000 C   0  0  0  0  0  0  0  0  0  0  0  0
   -2.4913  -14.6999    0.0000 C   0  0  0  0  0  0  0  0  0  0  0  0
   -2.1893  -13.5729    0.0000 C   0  0  0  0  0  0  0  0  0  0  0  0
   -1.4748  -13.9854    0.0000 C   0  0  0  0  0  0  0  0  0  0  0  0
   -0.7604  -13.5729    0.0000 O   0  0  0  0  0  0  0  0  0  0  0  0
   -0.0459  -13.9854    0.0000 C   0  0  0  0  0  0  0  0  0  0  0  0
    0.6686  -13.5729    0.0000 N   0  0  0  0  0  0  0  0  0  0  0  0
   -0.0459  -14.8104    0.0000 O   0  0  0  0  0  0  0  0  0  0  0  0
  1  4  1  0
  5  6  1  0
  6  7  1  0
  1  5  1  0
  7  8  1  0
  8  9  1  0
  1  2  1  0
  8 10  2  0
  1  3  1  0
M  CHG  1   1   1
M  END
> <chembl_id>
CHEMBL965

> <chembl_pref_name>
CARBACHOL

$$$$

     RDKit          2D

 21 23  0  0  0  0  0  0  0  0999 V2000
    0.2500    0.6708    0.0000 N   0  0  0  0  0  0  0  0  0  0  0  0
   -0.6000    1.3208    0.0000 C   0  0  0  0  0  0  0  0  0  0  0  0
   -0.2583    2.3208    0.0000 C   0  0  0  0  0  0  0  0  0  0  0  0
    1.1292    1.3000    0.0000 C   0  0  0  0  0  0  0  0  0  0  0  0
    0.8042    2.3208    0.0000 C   0  0  0  0  0  0  0  0  0  0  0  0
    0.2292   -0.3917    0.0000 C   0  0  0  0  0  0  0  0  0  0  0  0
    1.1542   -0.9167    0.0000 C   0  0  0  0  0  0  0  0  0  0  0  0
   -1.5333    0.8375    0.0000 C   0  0  0  0  0  0  0  0  0  0  0  0
    2.0792   -2.5167    0.0000 N   0  0  0  0  0  0  0  0  0  0  0  0
   -0.7458    3.2708    0.0000 C   0  0  0  0  0  0  0  0  0  0  0  0
    2.1750    1.0708    0.0000 C   0  0  0  0  0  0  0  0  0  0  0  0
    1.5250    3.1083    0.0000 C   0  0  0  0  0  0  0  0  0  0  0  0
    1.1542   -1.9917    0.0000 C   0  0  0  0  0  0  0  0  0  0  0  0
    3.0042   -1.9917    0.0000 C   0  0  0  0  0  0  0  0  0  0  0  0
    2.0542   -3.5875    0.0000 C   0  0  0  0  0  0  0  0  0  0  0  0
   -1.7458    3.5958    0.0000 C   0  0  0  0  0  0  0  0  0  0  0  0
   -2.5500    1.1833    0.0000 C   0  0  0  0  0  0  0  0  0  0  0  0
    2.5417    2.8750    0.0000 C   0  0  0  0  0  0  0  0  0  0  0  0
    2.8917    1.8583    0.0000 C   0  0  0  0  0  0  0  0  0  0  0  0
   -3.0125    2.1333    0.0000 C   0  0  0  0  0  0  0  0  0  0  0  0
   -2.6875    3.1333    0.0000 C   0  0  0  0  0  0  0  0  0  0  0  0
  2  1  1  0
  3  2  2  0
  4  1  1  0
  5  4  2  0
  6  1  1  0
  7  6  1  0
  8  2  1  0
  9 13  1  0
 10  3  1  0
 11  4  1  0
 12  5  1  0
 13  7  1  0
 14  9  1  0
 15  9  1  0
 16 10  1  0
 17  8  1  0
 18 19  1  0
 19 11  2  0
 20 17  1  0
 21 20  1  0
  5  3  1  0
 12 18  2  0
 16 21  1  0
M  END
> <chembl_id>
CHEMBL126224

> <chembl_pref_name>
IPRINDOLE

$$$$

     RDKit          2D

 12 12  0  0  0  0  0  0  0  0999 V2000
    3.5292    0.5208    0.0000 N   0  0  0  0  0  0  0  0  0  0  0  0
    0.6250    0.4583    0.0000 O   0  0  0  0  0  0  0  0  0  0  0  0
    2.8125   -0.7417    0.0000 C   0  0  0  0  0  0  0  0  0  0  0  0
    2.8000    1.7375    0.0000 N   0  0  0  0  0  0  0  0  0  0  0  0
    1.3792   -0.7417    0.0000 C   0  0  0  0  0  0  0  0  0  0  0  0
   -0.8208    0.4583    0.0000 C   0  0  0  0  0  0  0  0  0  0  0  0
    3.5375   -1.9542    0.0000 C   0  0  0  0  0  0  0  0  0  0  0  0
   -1.5458    1.7083    0.0000 C   0  0  0  0  0  0  0  0  0  0  0  0
   -1.5250   -0.7792    0.0000 C   0  0  0  0  0  0  0  0  0  0  0  0
   -2.9458   -0.7792    0.0000 C   0  0  0  0  0  0  0  0  0  0  0  0
   -2.9833    1.7000    0.0000 C   0  0  0  0  0  0  0  0  0  0  0  0
   -3.6875    0.4458    0.0000 C   0  0  0  0  0  0  0  0  0  0  0  0
  2  5  1  0
  3  1  1  0
  4  1  1  0
  5  3  1  0
  6  2  1  0
  7  3  1  0
  8  6  1  0
  9  6  2  0
 10  9  1  0
 11  8  2  0
 12 10  2  0
 11 12  1  0
M  END
> <chembl_id>
CHEMBL1909286

> <chembl_pref_name>
PHENOXYPROPAZINE

$$$$

     RDKit          2D

 15 16  0  0  1  0  0  0  0  0999 V2000
   -0.1000   -0.8917    0.0000 C   0  0  0  0  0  0  0  0  0  0  0  0
   -0.2500   -3.2000    0.0000 N   0  0  0  0  0  0  0  0  0  0  0  0
    0.7375   -2.1125    0.0000 C   0  0  0  0  0  0  0  0  0  0  0  0
   -1.5250   -1.3167    0.0000 C   0  0  0  0  0  0  0  0  0  0  0  0
    2.3417    2.1708    0.0000 C   0  0  0  0  0  0  0  0  0  0  0  0
    0.3917    0.5000    0.0000 C   0  0  0  0  0  0  0  0  0  0  0  0
   -1.5250   -2.6792    0.0000 C   0  0  0  0  0  0  0  0  0  0  0  0
    1.8417    0.7750    0.0000 C   0  0  0  0  0  0  0  0  0  0  0  0
    1.3792    3.2958    0.0000 O   0  0  0  0  0  0  0  0  0  0  0  0
    2.8125   -0.3542    0.0000 N   0  0  0  0  0  0  0  0  0  0  0  0
    3.7917    2.4458    0.0000 O   0  0  0  0  0  0  0  0  0  0  0  0
   -2.7208   -0.6292    0.0000 C   0  0  0  0  0  0  0  0  0  0  0  0
   -2.7208   -3.3667    0.0000 C   0  0  0  0  0  0  0  0  0  0  0  0
   -3.9000   -1.3167    0.0000 C   0  0  0  0  0  0  0  0  0  0  0  0
   -3.9000   -2.6792    0.0000 C   0  0  0  0  0  0  0  0  0  0  0  0
  2  3  1  0
  3  1  2  0
  4  1  1  0
  5  8  1  0
  6  1  1  0
  7  4  2  0
  8  6  1  0
  9  5  2  0
  8 10  1  1
 11  5  1  0
 12  4  1  0
 13  7  1  0
 14 12  2  0
 15 14  1  0
  7  2  1  0
 13 15  2  0
M  END
> <chembl_id>
CHEMBL54976

> <chembl_pref_name>
TRYPTOPHAN

$$$$

     RDKit          2D

  3  2  0  0  0  0  0  0  0  0999 V2000
    0.7145   -0.1375    0.0000 C   0  0  0  0  0  0  0  0  0  0  0  0
    0.0000    0.2750    0.0000 C   0  0  0  0  0  0  0  0  0  0  0  0
   -0.7145   -0.1375    0.0000 Cl  0  0  0  0  0  0  0  0  0  0  0  0
  2  1  2  0
  3  2  1  0
M  END
> <chembl_id>
CHEMBL2311071

> <chembl_pref_name>
VINYL CHLORIDE

$$$$

     RDKit          2D

 18 19  0  0  0  0  0  0  0  0999 V2000
   -3.0458   -0.2375    0.0000 C   0  0  0  0  0  0  0  0  0  0  0  0
   -0.7208   -0.2000    0.0000 N   0  0  0  0  0  0  0  0  0  0  0  0
   -1.9083    0.4625    0.0000 C   0  0  0  0  0  0  0  0  0  0  0  0
    0.4625    0.5000    0.0000 C   0  0  0  0  0  0  0  0  0  0  0  0
   -3.0333   -1.6000    0.0000 C   0  0  0  0  0  0  0  0  0  0  0  0
    1.6250   -0.1792    0.0000 C   0  0  0  0  0  0  0  0  0  0  0  0
    2.7917    0.5208    0.0000 C   0  0  0  0  0  0  0  0  0  0  0  0
   -1.8458   -2.2417    0.0000 O   0  0  0  0  0  0  0  0  0  0  0  0
   -4.1750   -2.2792    0.0000 O   0  0  0  0  0  0  0  0  0  0  0  0
    3.9750   -0.1542    0.0000 Cl  0  0  0  0  0  0  0  0  0  0  0  0
   -4.2458    0.4208    0.0000 C   0  0  0  0  0  0  0  0  0  0  0  0
    0.4750    1.8458    0.0000 C   0  0  0  0  0  0  0  0  0  0  0  0
    1.6250   -1.5167    0.0000 C   0  0  0  0  0  0  0  0  0  0  0  0
   -1.8875    1.8250    0.0000 C   0  0  0  0  0  0  0  0  0  0  0  0
    1.6125    2.5333    0.0000 C   0  0  0  0  0  0  0  0  0  0  0  0
    2.7917    1.8833    0.0000 C   0  0  0  0  0  0  0  0  0  0  0  0
   -4.2375    1.7750    0.0000 C   0  0  0  0  0  0  0  0  0  0  0  0
   -3.1000    2.4833    0.0000 C   0  0  0  0  0  0  0  0  0  0  0  0
  2  3  1  0
  3  1  1  0
  4  2  1  0
  5  1  1  0
  6  4  2  0
  7  6  1  0
  8  5  2  0
  9  5  1  0
 10  7  1  0
 11  1  2  0
 12  4  1  0
 13  6  1  0
 14  3  2  0
 15 12  2  0
 16 15  1  0
 17 11  1  0
 18 17  2  0
 14 18  1  0
  7 16  2  0
M  END
> <chembl_id>
CHEMBL121626

> <chembl_pref_name>
TOLFENAMIC ACID

$$$$

     RDKit          2D

 19 20  0  0  1  0  0  0  0  0999 V2000
    0.0792   -0.1792    0.0000 O   0  0  0  0  0  0  0  0  0  0  0  0
   -0.5292   -0.5375    0.0000 C   0  0  0  0  0  0  0  0  0  0  0  0
    0.6958   -0.5292    0.0000 C   0  0  0  0  0  0  0  0  0  0  0  0
   -1.1458   -0.1833    0.0000 C   0  0  0  0  0  0  0  0  0  0  0  0
    0.6958   -1.2375    0.0000 C   0  0  0  0  0  0  0  0  0  0  0  0
    1.3083   -0.1750    0.0000 C   0  0  0  0  0  0  0  0  0  0  0  0
    2.5333   -0.1667    0.0000 N   0  0  0  0  0  0  0  0  0  0  0  0
   -0.5292   -1.2500    0.0000 C   0  0  0  0  0  0  0  0  0  0  0  0
    1.9208   -0.5250    0.0000 C   0  0  0  0  0  0  0  0  0  0  0  0
   -1.1500    0.5250    0.0000 C   0  0  0  0  0  0  0  0  0  0  0  0
   -1.7583   -0.5375    0.0000 C   0  0  0  0  0  0  0  0  0  0  0  0
    0.0875   -1.5917    0.0000 C   0  0  0  0  0  0  0  0  0  0  0  0
    1.3125   -1.5833    0.0000 C   0  0  0  0  0  0  0  0  0  0  0  0
    3.1500   -0.5208    0.0000 C   0  0  0  0  0  0  0  0  0  0  0  0
   -1.1458   -1.6042    0.0000 C   0  0  0  0  0  0  0  0  0  0  0  0
   -1.7583   -1.2500    0.0000 C   0  0  0  0  0  0  0  0  0  0  0  0
    0.0875   -2.3000    0.0000 C   0  0  0  0  0  0  0  0  0  0  0  0
    1.3167   -2.2917    0.0000 C   0  0  0  0  0  0  0  0  0  0  0  0
    0.7042   -2.6542    0.0000 C   0  0  0  0  0  0  0  0  0  0  0  0
  2  1  1  0
  3  1  1  0
  4  2  2  0
  3  5  1  6
  6  3  1  0
  7  9  1  0
  8  2  1  0
  9  6  1  0
 10  4  1  0
 11  4  1  0
 12  5  2  0
 13  5  1  0
 14  7  1  0
 15  8  2  0
 16 11  2  0
 17 12  1  0
 18 13  2  0
 19 18  1  0
 15 16  1  0
 19 17  2  0
M  END
> <chembl_id>
CHEMBL641

> <chembl_pref_name>
ATOMOXETINE

$$$$

     RDKit          2D

  7  5  0  0  0  0  0  0  0  0999 V2000
    2.9792   -1.2917    0.0000 Na  0  0  0  0  0 15  0  0  0  0  0  0
   -1.2833    0.1333    0.0000 C   0  0  0  0  0  0  0  0  0  0  0  0
   -2.7083    0.1333    0.0000 C   0  0  0  0  0  0  0  0  0  0  0  0
   -0.5500   -1.1042    0.0000 O   0  0  0  0  0  0  0  0  0  0  0  0
   -0.6083    1.3958    0.0000 O   0  0  0  0  0  0  0  0  0  0  0  0
   -3.4208   -1.1167    0.0000 Cl  0  0  0  0  0  0  0  0  0  0  0  0
   -3.4833    1.3333    0.0000 Cl  0  0  0  0  0  0  0  0  0  0  0  0
  3  2  1  0
  4  2  1  0
  5  2  2  0
  6  3  1  0
  7  3  1  0
M  CHG  2   1   1   4  -1
M  END
> <chembl_id>
CHEMBL306823

> <chembl_pref_name>
SODIUM DICHLOROACETATE

$$$$

     RDKit          2D

 17 17  0  0  0  0  0  0  0  0999 V2000
   -0.5625    1.5708    0.0000 C   0  0  0  0  0  0  0  0  0  0  0  0
   -0.5625   -0.8375    0.0000 C   0  0  0  0  0  0  0  0  0  0  0  0
    0.1250    0.3833    0.0000 C   0  0  0  0  0  0  0  0  0  0  0  0
   -1.9458    1.5833    0.0000 N   0  0  0  0  0  0  0  0  0  0  0  0
   -1.9500   -0.8417    0.0000 N   0  0  0  0  0  0  0  0  0  0  0  0
   -2.6583    0.3500    0.0000 C   0  0  0  0  0  0  0  0  0  0  0  0
   -4.0958    0.3500    0.0000 S   0  0  0  0  0  0  0  0  0  0  0  0
    0.1292    2.7875    0.0000 O   0  0  0  0  0  0  0  0  0  0  0  0
    0.1250   -2.0917    0.0000 O   0  0  0  0  0  0  0  0  0  0  0  0
    1.3417    0.8000    0.0000 C   0  0  0  0  0  0  0  0  0  0  0  0
    0.7417   -1.9792    0.0000 C   0  0  0  0  0  0  0  0  0  0  0  0
    1.1000   -0.6292    0.0000 C   0  0  0  0  0  0  0  0  0  0  0  0
    1.7375   -2.9917    0.0000 C   0  0  0  0  0  0  0  0  0  0  0  0
    2.4292    0.1833    0.0000 C   0  0  0  0  0  0  0  0  0  0  0  0
    1.4000    1.8500    0.0000 C   0  0  0  0  0  0  0  0  0  0  0  0
    3.3375    1.0000    0.0000 C   0  0  0  0  0  0  0  0  0  0  0  0
    4.3417    0.5958    0.0000 C   0  0  0  0  0  0  0  0  0  0  0  0
  2  3  1  0
  3  1  1  0
  4  1  1  0
  5  6  1  0
  6  4  1  0
  7  6  2  0
  8  1  2  0
  9  2  2  0
 10  3  1  0
 11 12  1  0
 12  3  1  0
 13 11  2  0
 14 10  1  0
 15 10  1  0
 16 14  1  0
 17 16  1  0
  2  5  1  0
M  END
> <chembl_id>
CHEMBL440

> <chembl_pref_name>
THIAMYLAL

$$$$

     RDKit          2D

 21 21  0  0  0  0  0  0  0  0999 V2000
    7.4917   -9.4167    0.0000 C   0  0  0  0  0  0  0  0  0  0  0  0
    7.4917   -8.7083    0.0000 O   0  0  0  0  0  0  0  0  0  0  0  0
    1.3625  -10.8458    0.0000 N   0  0  0  0  0  0  0  0  0  0  0  0
    3.8167  -10.8458    0.0000 O   0  0  0  0  0  0  0  0  0  0  0  0
    2.5875  -10.8458    0.0000 C   0  0  0  0  0  0  0  0  0  0  0  0
    4.4292  -10.4917    0.0000 C   0  0  0  0  0  0  0  0  0  0  0  0
    6.8792   -9.7750    0.0000 C   0  0  0  0  0  0  0  0  0  0  0  0
    1.9750  -10.4917    0.0000 C   0  0  0  0  0  0  0  0  0  0  0  0
    5.6542   -9.7792    0.0000 C   0  0  0  0  0  0  0  0  0  0  0  0
    3.2000  -10.4917    0.0000 C   0  0  0  0  0  0  0  0  0  0  0  0
    8.1083   -9.7708    0.0000 O   0  0  0  0  0  0  0  0  0  0  0  0
    6.2667   -9.4208    0.0000 C   0  0  0  0  0  0  0  0  0  0  0  0
    5.0417  -10.8458    0.0000 C   0  0  0  0  0  0  0  0  0  0  0  0
    4.4292   -9.7792    0.0000 C   0  0  0  0  0  0  0  0  0  0  0  0
    5.6542  -10.4917    0.0000 C   0  0  0  0  0  0  0  0  0  0  0  0
    5.0417   -9.4250    0.0000 C   0  0  0  0  0  0  0  0  0  0  0  0
    2.5875  -11.5542    0.0000 O   0  0  0  0  0  0  0  0  0  0  0  0
    0.7500  -10.4917    0.0000 C   0  0  0  0  0  0  0  0  0  0  0  0
    8.7208   -9.4125    0.0000 C   0  0  0  0  0  0  0  0  0  0  0  0
    0.1333  -10.8417    0.0000 C   0  0  0  0  0  0  0  0  0  0  0  0
    0.7500   -9.7833    0.0000 C   0  0  0  0  0  0  0  0  0  0  0  0
  2  1  2  0
  3  8  1  0
  4  6  1  0
  5 10  1  0
  6 14  2  0
  7  1  1  0
  8  5  1  0
  9 12  1  0
 10  4  1  0
 11  1  1  0
 12  7  1  0
 13 15  2  0
 14 16  1  0
 15  9  1  0
 16  9  2  0
 17  5  1  0
 18  3  1  0
 19 11  1  0
 20 18  1  0
 21 18  1  0
 13  6  1  0
M  END
> <chembl_id>
CHEMBL768

> <chembl_pref_name>
ESMOLOL

$$$$

     RDKit          2D

  6  4  0  0  0  0  0  0  0  0999 V2000
   -1.9875   -1.2000    0.0000 Na  0  0  0  0  0 15  0  0  0  0  0  0
   -3.4833   -0.8667    0.0000 P   0  0  0  0  0  0  0  0  0  0  0  0
   -2.8708   -1.2167    0.0000 O   0  0  0  0  0  0  0  0  0  0  0  0
   -3.1333   -0.2417    0.0000 O   0  0  0  0  0  0  0  0  0  0  0  0
   -4.0958   -1.2167    0.0000 O   0  0  0  0  0  0  0  0  0  0  0  0
   -3.8458   -0.2417    0.0000 O   0  0  0  0  0  0  0  0  0  0  0  0
  3  2  1  0
  4  2  2  0
  5  2  1  0
  6  2  1  0
M  CHG  2   1   1   3  -1
M  END
> <chembl_id>
CHEMBL1368

> <chembl_pref_name>
SODIUM PHOSPHATE, MONOBASIC

$$$$

     RDKit          2D

  1  0  0  0  0  0  0  0  0  0999 V2000
   -2.3458    2.0333    0.0000 O   0  0  0  0  0  0  0  0  0  0  0  0
M  END
> <chembl_id>
CHEMBL1098659

> <chembl_pref_name>
WATER

$$$$

     RDKit          2D

 17 16  0  0  0  0  0  0  0  0999 V2000
    0.0542    2.0333    0.0000 Cl  0  0  0  0  0  0  0  0  0  0  0  0
   -3.3333    0.0000    0.0000 C   0  0  0  0  0  0  0  0  0  0  0  0
   -2.3583   -0.5167    0.0000 C   0  0  0  0  0  0  0  0  0  0  0  0
   -1.4083    0.0500    0.0000 C   0  0  0  0  0  0  0  0  0  0  0  0
   -0.4333   -0.4625    0.0000 C   0  0  0  0  0  0  0  0  0  0  0  0
   -4.0958   -0.8000    0.0000 F   0  0  0  0  0  0  0  0  0  0  0  0
   -2.7333    0.9208    0.0000 F   0  0  0  0  0  0  0  0  0  0  0  0
   -4.2083    0.6708    0.0000 F   0  0  0  0  0  0  0  0  0  0  0  0
    0.4917    0.1125    0.0000 C   0  0  0  0  0  0  0  0  0  0  0  0
    2.4125    0.1708    0.0000 N   0  0  0  0  0  0  0  0  0  0  0  0
   -2.3208   -1.6292    0.0000 C   0  0  0  0  0  0  0  0  0  0  0  0
    1.4667   -0.4000    0.0000 C   0  0  0  0  0  0  0  0  0  0  0  0
   -1.3458   -2.1542    0.0000 C   0  0  0  0  0  0  0  0  0  0  0  0
   -0.4000   -1.5667    0.0000 C   0  0  0  0  0  0  0  0  0  0  0  0
    3.3917   -0.3375    0.0000 C   0  0  0  0  0  0  0  0  0  0  0  0
    1.5042   -1.5042    0.0000 C   0  0  0  0  0  0  0  0  0  0  0  0
    4.3417    0.2375    0.0000 C   0  0  0  0  0  0  0  0  0  0  0  0
  3  2  1  0
  4  3  1  0
  5  4  2  0
  6  2  1  0
  7  2  1  0
  8  2  1  0
  9  5  1  0
 10 12  1  0
 11  3  2  0
 12  9  1  0
 13 11  1  0
 14 13  2  0
 15 10  1  0
 16 12  1  0
 17 15  1  0
  5 14  1  0
M  END
> <chembl_id>
CHEMBL2106217

> <chembl_pref_name>
FENFLURAMINE HYDROCHLORIDE

$$$$

     RDKit          2D

 16 18  0  0  0  0  0  0  0  0999 V2000
    4.8417   -4.6917    0.0000 C   0  0  0  0  0  0  0  0  0  0  0  0
    5.4542   -5.0167    0.0000 C   0  0  0  0  0  0  0  0  0  0  0  0
    6.0625   -4.6667    0.0000 C   0  0  0  0  0  0  0  0  0  0  0  0
    4.2292   -5.0417    0.0000 O   0  0  0  0  0  0  0  0  0  0  0  0
    4.8292   -3.9750    0.0000 C   0  0  0  0  0  0  0  0  0  0  0  0
    6.0500   -3.9542    0.0000 C   0  0  0  0  0  0  0  0  0  0  0  0
    3.6042   -4.7042    0.0000 C   0  0  0  0  0  0  0  0  0  0  0  0
    4.2042   -3.6292    0.0000 C   0  0  0  0  0  0  0  0  0  0  0  0
    5.4292   -3.6042    0.0000 C   0  0  0  0  0  0  0  0  0  0  0  0
    3.5917   -3.9917    0.0000 C   0  0  0  0  0  0  0  0  0  0  0  0
    6.7417   -4.8667    0.0000 O   0  0  0  0  0  0  0  0  0  0  0  0
    7.1542   -4.2917    0.0000 C   0  0  0  0  0  0  0  0  0  0  0  0
    6.7250   -3.7250    0.0000 C   0  0  0  0  0  0  0  0  0  0  0  0
    2.9917   -5.0667    0.0000 O   0  0  0  0  0  0  0  0  0  0  0  0
    5.4667   -5.7375    0.0000 O   0  0  0  0  0  0  0  0  0  0  0  0
    6.0875   -6.0792    0.0000 C   0  0  0  0  0  0  0  0  0  0  0  0
  2  1  2  0
  3  2  1  0
  4  1  1  0
  5  1  1  0
  6  9  1  0
  7  4  1  0
  8  5  1  0
  9  5  2  0
 10  8  2  0
 11  3  1  0
 12 11  1  0
 13  6  1  0
 14  7  2  0
 15  2  1  0
 16 15  1  0
  6  3  2  0
 10  7  1  0
 12 13  2  0
M  END
> <chembl_id>
CHEMBL416

> <chembl_pref_name>
METHOXSALEN

$$$$

     RDKit          2D

 17 18  0  0  0  0  0  0  0  0999 V2000
    0.4081   -5.6297    0.0000 N   0  0  0  0  0  0  0  0  0  0  0  0
   -1.0463   -5.4027    0.0000 O   0  0  0  0  0  0  0  0  0  0  0  0
   -1.7098   -5.8882    0.0000 C   0  0  0  0  0  0  0  0  0  0  0  0
   -1.4541   -6.6721    0.0000 C   0  0  0  0  0  0  0  0  0  0  0  0
   -0.6290   -6.6723    0.0000 C   0  0  0  0  0  0  0  0  0  0  0  0
   -0.3740   -5.8878    0.0000 C   0  0  0  0  0  0  0  0  0  0  0  0
   -1.9391   -7.3395    0.0000 O   0  0  0  0  0  0  0  0  0  0  0  0
   -2.4210   -5.4700    0.0000 C   0  0  0  0  0  0  0  0  0  0  0  0
   -2.4144   -4.6450    0.0000 O   0  0  0  0  0  0  0  0  0  0  0  0
    1.0771   -6.1104    0.0000 N   0  0  0  0  0  0  0  0  0  0  0  0
    1.7405   -5.6240    0.0000 C   0  0  0  0  0  0  0  0  0  0  0  0
    1.4831   -4.8412    0.0000 N   0  0  0  0  0  0  0  0  0  0  0  0
    0.6596   -4.8451    0.0000 C   0  0  0  0  0  0  0  0  0  0  0  0
    2.4578   -6.0317    0.0000 C   0  0  0  0  0  0  0  0  0  0  0  0
    2.4633   -6.8567    0.0000 O   0  0  0  0  0  0  0  0  0  0  0  0
    3.1695   -5.6144    0.0000 N   0  0  0  0  0  0  0  0  0  0  0  0
   -0.1442   -7.3399    0.0000 O   0  0  0  0  0  0  0  0  0  0  0  0
  3  4  1  0
  8  9  1  0
  1 10  1  0
  4  5  1  0
  5  6  1  0
  6  2  1  0
  6  1  1  1
 10 11  2  0
 11 12  1  0
 12 13  2  0
 13  1  1  0
 11 14  1  0
  4  7  1  6
 14 15  2  0
  2  3  1  0
 14 16  1  0
  3  8  1  1
  5 17  1  6
M  END
> <chembl_id>
CHEMBL1643

> <chembl_pref_name>
RIBAVIRIN

$$$$

     RDKit          2D

 20 20  0  0  0  0  0  0  0  0999 V2000
    3.2667   -5.0375    0.0000 C   0  0  0  0  0  0  0  0  0  0  0  0
    3.2542   -5.7667    0.0000 C   0  0  0  0  0  0  0  0  0  0  0  0
    2.6417   -4.6792    0.0000 C   0  0  0  0  0  0  0  0  0  0  0  0
    3.8917   -4.6792    0.0000 C   0  0  0  0  0  0  0  0  0  0  0  0
    2.6417   -6.1167    0.0000 C   0  0  0  0  0  0  0  0  0  0  0  0
    2.0292   -5.0292    0.0000 C   0  0  0  0  0  0  0  0  0  0  0  0
    2.0083   -5.7500    0.0000 C   0  0  0  0  0  0  0  0  0  0  0  0
    3.8875   -3.9792    0.0000 O   0  0  0  0  0  0  0  0  0  0  0  0
    4.5000   -5.0625    0.0000 N   0  0  0  0  0  0  0  0  0  0  0  0
    1.4000   -6.1000    0.0000 N   0  0  0  0  0  0  0  0  0  0  0  0
    1.4042   -4.6667    0.0000 Cl  0  0  0  0  0  0  0  0  0  0  0  0
    3.8750   -6.1167    0.0000 O   0  0  0  0  0  0  0  0  0  0  0  0
    6.3292   -4.7125    0.0000 N   0  0  0  0  0  0  0  0  0  0  0  0
    5.1125   -4.7167    0.0000 C   0  0  0  0  0  0  0  0  0  0  0  0
    5.7042   -5.0667    0.0000 C   0  0  0  0  0  0  0  0  0  0  0  0
    6.3167   -4.0167    0.0000 C   0  0  0  0  0  0  0  0  0  0  0  0
    6.9250   -5.0792    0.0000 C   0  0  0  0  0  0  0  0  0  0  0  0
    4.4750   -5.7667    0.0000 C   0  0  0  0  0  0  0  0  0  0  0  0
    5.7167   -3.6667    0.0000 C   0  0  0  0  0  0  0  0  0  0  0  0
    7.5375   -4.7417    0.0000 C   0  0  0  0  0  0  0  0  0  0  0  0
  2  1  1  0
  3  1  2  0
  4  1  1  0
  5  2  2  0
  6  3  1  0
  7  6  2  0
  8  4  2  0
  9  4  1  0
 10  7  1  0
 11  6  1  0
 12  2  1  0
 13 15  1  0
 14  9  1  0
 15 14  1  0
 16 13  1  0
 17 13  1  0
 18 12  1  0
 19 16  1  0
 20 17  1  0
  7  5  1  0
M  END
> <chembl_id>
CHEMBL86

> <chembl_pref_name>
METOCLOPRAMIDE

$$$$

     RDKit          2D

 19 20  0  0  1  0  0  0  0  0999 V2000
   -0.3583   -0.8167    0.0000 C   0  0  0  0  0  0  0  0  0  0  0  0
    0.2542   -1.1500    0.0000 C   0  0  0  0  0  0  0  0  0  0  0  0
   -1.6000   -0.8167    0.0000 N   0  0  0  0  0  0  0  0  0  0  0  0
   -0.3583   -0.0917    0.0000 C   0  0  0  0  0  0  0  0  0  0  0  0
   -0.9833   -1.1792    0.0000 C   0  0  0  0  0  0  0  0  0  0  0  0
   -0.9708    0.2458    0.0000 C   0  0  0  0  0  0  0  0  0  0  0  0
    0.2542    0.2458    0.0000 C   0  0  0  0  0  0  0  0  0  0  0  0
    0.8667   -0.7542    0.0000 C   0  0  0  0  0  0  0  0  0  0  0  0
    1.4917   -1.0917    0.0000 N   0  0  0  0  0  0  0  0  0  0  0  0
   -0.3583    1.3208    0.0000 C   0  0  0  0  0  0  0  0  0  0  0  0
    0.2542    0.9750    0.0000 C   0  0  0  0  0  0  0  0  0  0  0  0
   -0.9708    0.9750    0.0000 C   0  0  0  0  0  0  0  0  0  0  0  0
   -0.3583    2.0250    0.0000 Cl  0  0  0  0  0  0  0  0  0  0  0  0
   -2.2083   -1.1792    0.0000 C   0  0  0  0  0  0  0  0  0  0  0  0
   -0.9833   -1.8792    0.0000 C   0  0  0  0  0  0  0  0  0  0  0  0
    1.5292   -1.7917    0.0000 C   0  0  0  0  0  0  0  0  0  0  0  0
    2.0917   -0.7042    0.0000 C   0  0  0  0  0  0  0  0  0  0  0  0
   -2.2083   -1.8792    0.0000 C   0  0  0  0  0  0  0  0  0  0  0  0
   -1.6000   -2.2417    0.0000 C   0  0  0  0  0  0  0  0  0  0  0  0
  2  1  1  0
  3  5  2  0
  1  4  1  6
  5  1  1  0
  6  4  2  0
  7  4  1  0
  8  2  1  0
  9  8  1  0
 10 11  1  0
 11  7  2  0
 12  6  1  0
 13 10  1  0
 14  3  1  0
 15  5  1  0
 16  9  1  0
 17  9  1  0
 18 19  1  0
 19 15  2  0
 12 10  2  0
 14 18  2  0
M  END
> <chembl_id>
CHEMBL1201353

> <chembl_pref_name>
DEXCHLORPHENIRAMINE

$$$$

     RDKit          2D

  5  4  0  0  0  0  0  0  0  0999 V2000
   -0.8708    0.0625    0.0000 C   0  0  0  0  0  0  0  0  0  0  0  0
    0.5667    0.0625    0.0000 C   0  0  0  0  0  0  0  0  0  0  0  0
   -1.5833   -1.1667    0.0000 Cl  0  0  0  0  0  0  0  0  0  0  0  0
   -1.5958    1.3000    0.0000 Cl  0  0  0  0  0  0  0  0  0  0  0  0
    1.2792    1.3000    0.0000 Cl  0  0  0  0  0  0  0  0  0  0  0  0
  2  1  2  0
  3  1  1  0
  4  1  1  0
  5  2  1  0
M  END
> <chembl_id>
CHEMBL279816

> <chembl_pref_name>
TRICHLOROETHYLENE

$$$$

     RDKit          2D

 18 17  0  0  0  0  0  0  0  0999 V2000
    1.8292    0.8000    0.0000 Cl  0  0  0  0  0  0  0  0  0  0  0  0
   -1.7750    1.0792    0.0000 C   0  0  0  0  0  0  0  0  0  0  0  0
   -2.3875    1.4333    0.0000 C   0  0  0  0  0  0  0  0  0  0  0  0
   -0.5500    1.0833    0.0000 C   0  0  0  0  0  0  0  0  0  0  0  0
   -3.0000    1.0792    0.0000 C   0  0  0  0  0  0  0  0  0  0  0  0
   -0.5542    0.3792    0.0000 N   0  0  0  0  0  0  0  0  0  0  0  0
   -1.1625    1.4333    0.0000 C   0  0  0  0  0  0  0  0  0  0  0  0
   -3.0000    0.3667    0.0000 C   0  0  0  0  0  0  0  0  0  0  0  0
   -1.7750    0.3667    0.0000 C   0  0  0  0  0  0  0  0  0  0  0  0
   -2.3875    0.0167    0.0000 C   0  0  0  0  0  0  0  0  0  0  0  0
   -3.6125    1.4333    0.0000 O   0  0  0  0  0  0  0  0  0  0  0  0
   -1.1667    2.1458    0.0000 O   0  0  0  0  0  0  0  0  0  0  0  0
   -3.6125    0.0208    0.0000 O   0  0  0  0  0  0  0  0  0  0  0  0
    0.0583    0.0208    0.0000 C   0  0  0  0  0  0  0  0  0  0  0  0
    0.0625    1.4417    0.0000 C   0  0  0  0  0  0  0  0  0  0  0  0
    0.6708    0.3792    0.0000 C   0  0  0  0  0  0  0  0  0  0  0  0
    0.0583   -0.6833    0.0000 C   0  0  0  0  0  0  0  0  0  0  0  0
    0.6750    1.0917    0.0000 C   0  0  0  0  0  0  0  0  0  0  0  0
  3  2  2  0
  4  7  1  0
  5  3  1  0
  4  6  1  0
  7  2  1  0
  8 10  1  0
  9  2  1  0
 10  9  2  0
 11  5  1  0
  7 12  1  0
 13  8  1  0
 14  6  1  0
 15  4  1  0
 16 14  1  0
 17 14  1  0
 18 15  1  0
  8  5  2  0
M  END
> <chembl_id>
CHEMBL1200920

> <chembl_pref_name>
ISOETHARINE HYDROCHLORIDE

$$$$

     RDKit          2D

 20 20  0  0  0  0  0  0  0  0999 V2000
    3.7750   -4.2167    0.0000 Cl  0  0  0  0  0  0  0  0  0  0  0  0
    0.9000   -3.2917    0.0000 C   0  0  0  0  0  0  0  0  0  0  0  0
    1.5167   -2.9375    0.0000 C   0  0  0  0  0  0  0  0  0  0  0  0
    1.5167   -2.2292    0.0000 O   0  0  0  0  0  0  0  0  0  0  0  0
    3.9708   -2.2292    0.0000 N   0  0  0  0  0  0  0  0  0  0  0  0
    0.9000   -4.0000    0.0000 C   0  0  0  0  0  0  0  0  0  0  0  0
    2.7458   -2.2292    0.0000 C   0  0  0  0  0  0  0  0  0  0  0  0
    2.1292   -1.8750    0.0000 C   0  0  0  0  0  0  0  0  0  0  0  0
    3.3583   -1.8750    0.0000 C   0  0  0  0  0  0  0  0  0  0  0  0
    2.7417   -2.9375    0.0000 O   0  0  0  0  0  0  0  0  0  0  0  0
    4.5833   -1.8750    0.0000 C   0  0  0  0  0  0  0  0  0  0  0  0
    2.1292   -4.0000    0.0000 C   0  0  0  0  0  0  0  0  0  0  0  0
    2.1292   -3.2917    0.0000 C   0  0  0  0  0  0  0  0  0  0  0  0
    0.2792   -2.9375    0.0000 C   0  0  0  0  0  0  0  0  0  0  0  0
    1.5167   -4.3542    0.0000 C   0  0  0  0  0  0  0  0  0  0  0  0
    0.2792   -4.3542    0.0000 C   0  0  0  0  0  0  0  0  0  0  0  0
    4.5875   -1.1667    0.0000 C   0  0  0  0  0  0  0  0  0  0  0  0
    5.2000   -2.2292    0.0000 C   0  0  0  0  0  0  0  0  0  0  0  0
   -0.3333   -3.2917    0.0000 C   0  0  0  0  0  0  0  0  0  0  0  0
   -0.3333   -4.0000    0.0000 C   0  0  0  0  0  0  0  0  0  0  0  0
  3  2  1  0
  4  3  1  0
  5  9  1  0
  6  2  2  0
  7  8  1  0
  8  4  1  0
  9  7  1  0
 10  7  1  0
 11  5  1  0
 12 15  2  0
 13  3  2  0
 14  2  1  0
 15  6  1  0
 16  6  1  0
 17 11  1  0
 18 11  1  0
 19 14  2  0
 20 16  2  0
 12 13  1  0
 19 20  1  0
M  END
> <chembl_id>
CHEMBL1671

> <chembl_pref_name>
PROPRANOLOL HYDROCHLORIDE

$$$$

     RDKit          2D

 13 12  0  0  0  0  0  0  0  0999 V2000
   -2.5333   -0.6792    0.0000 N   0  0  0  0  0  0  0  0  0  0  0  0
   -1.6500   -0.1792    0.0000 C   0  0  0  0  0  0  0  0  0  0  0  0
   -3.3833   -0.2000    0.0000 C   0  0  0  0  0  0  0  0  0  0  0  0
   -1.6500    0.8083    0.0000 N   0  0  0  0  0  0  0  0  0  0  0  0
   -3.3833    0.7833    0.0000 N   0  0  0  0  0  0  0  0  0  0  0  0
   -0.7833   -0.6542    0.0000 N   0  0  0  0  0  0  0  0  0  0  0  0
   -4.2208   -0.7375    0.0000 N   0  0  0  0  0  0  0  0  0  0  0  0
    0.0750   -0.1792    0.0000 C   0  0  0  0  0  0  0  0  0  0  0  0
    0.9167   -0.6542    0.0000 C   0  0  0  0  0  0  0  0  0  0  0  0
    3.4917   -0.1542    0.0000 C   0  0  0  0  0  0  0  0  0  0  0  0
    2.6417   -0.6375    0.0000 C   0  0  0  0  0  0  0  0  0  0  0  0
    1.7917   -0.1542    0.0000 C   0  0  0  0  0  0  0  0  0  0  0  0
    4.3417   -0.6375    0.0000 C   0  0  0  0  0  0  0  0  0  0  0  0
  2  1  1  0
  3  1  1  0
  4  2  2  0
  5  3  2  0
  6  2  1  0
  7  3  1  0
  8  6  1  0
  9  8  1  0
 10 11  1  0
 11 12  1  0
 12  9  1  0
 13 10  1  0
M  END
> <chembl_id>
CHEMBL2106939

> <chembl_pref_name>
POLIHEXANIDE

$$$$

     RDKit          2D

 18 19  0  0  0  0  0  0  0  0999 V2000
    0.4000   -2.9417    0.0000 S   0  0  0  0  0  0  0  0  0  0  0  0
    1.6250   -2.9333    0.0000 C   0  0  0  0  0  0  0  0  0  0  0  0
    1.0125   -2.5833    0.0000 N   0  0  0  0  0  0  0  0  0  0  0  0
    1.8417   -3.6083    0.0000 C   0  0  0  0  0  0  0  0  0  0  0  0
    2.7708   -2.9333    0.0000 N   0  0  0  0  0  0  0  0  0  0  0  0
    2.1958   -2.5167    0.0000 O   0  0  0  0  0  0  0  0  0  0  0  0
    2.5500   -3.6083    0.0000 C   0  0  0  0  0  0  0  0  0  0  0  0
   -0.2167   -2.5875    0.0000 C   0  0  0  0  0  0  0  0  0  0  0  0
    0.7500   -3.5542    0.0000 O   0  0  0  0  0  0  0  0  0  0  0  0
    0.0417   -3.5542    0.0000 O   0  0  0  0  0  0  0  0  0  0  0  0
   -0.8292   -2.9417    0.0000 C   0  0  0  0  0  0  0  0  0  0  0  0
   -0.2167   -1.8750    0.0000 C   0  0  0  0  0  0  0  0  0  0  0  0
    1.2250   -3.9542    0.0000 C   0  0  0  0  0  0  0  0  0  0  0  0
   -1.4417   -1.8750    0.0000 C   0  0  0  0  0  0  0  0  0  0  0  0
   -2.0542   -1.5208    0.0000 N   0  0  0  0  0  0  0  0  0  0  0  0
   -1.4417   -2.5875    0.0000 C   0  0  0  0  0  0  0  0  0  0  0  0
   -0.8292   -1.5208    0.0000 C   0  0  0  0  0  0  0  0  0  0  0  0
    3.1625   -3.9625    0.0000 C   0  0  0  0  0  0  0  0  0  0  0  0
  2  3  1  0
  3  1  1  0
  4  2  2  0
  5  6  1  0
  6  2  1  0
  7  4  1  0
  8  1  1  0
  9  1  2  0
 10  1  2  0
 11  8  2  0
 12  8  1  0
 13  4  1  0
 14 16  2  0
 15 14  1  0
 16 11  1  0
 17 12  2  0
 18  7  1  0
 14 17  1  0
  5  7  2  0
M  END
> <chembl_id>
CHEMBL453

> <chembl_pref_name>
SULFISOXAZOLE

$$$$

     RDKit          2D

 16 18  0  0  0  0  0  0  0  0999 V2000
    3.6042   -4.3000    0.0000 C   0  0  0  0  0  0  0  0  0  0  0  0
    2.9917   -4.6542    0.0000 C   0  0  0  0  0  0  0  0  0  0  0  0
    3.6042   -3.5875    0.0000 C   0  0  0  0  0  0  0  0  0  0  0  0
    4.2917   -4.5042    0.0000 N   0  0  0  0  0  0  0  0  0  0  0  0
    4.6917   -3.9417    0.0000 S   0  0  0  0  0  0  0  0  0  0  0  0
    3.6000   -5.7167    0.0000 C   0  0  0  0  0  0  0  0  0  0  0  0
    4.2917   -3.3667    0.0000 N   0  0  0  0  0  0  0  0  0  0  0  0
    2.3750   -4.3000    0.0000 C   0  0  0  0  0  0  0  0  0  0  0  0
    2.9917   -5.3625    0.0000 N   0  0  0  0  0  0  0  0  0  0  0  0
    2.9917   -3.2292    0.0000 C   0  0  0  0  0  0  0  0  0  0  0  0
    3.8042   -6.4167    0.0000 N   0  0  0  0  0  0  0  0  0  0  0  0
    2.3750   -3.5875    0.0000 C   0  0  0  0  0  0  0  0  0  0  0  0
    4.1667   -5.3292    0.0000 N   0  0  0  0  0  0  0  0  0  0  0  0
    1.7542   -4.6542    0.0000 Cl  0  0  0  0  0  0  0  0  0  0  0  0
    4.5042   -6.4167    0.0000 C   0  0  0  0  0  0  0  0  0  0  0  0
    4.7250   -5.7167    0.0000 C   0  0  0  0  0  0  0  0  0  0  0  0
  2  1  1  0
  3  1  1  0
  4  1  2  0
  5  4  1  0
  6  9  1  0
  7  3  2  0
  8  2  2  0
  9  2  1  0
 10  3  1  0
 11  6  2  0
 12 10  2  0
 13  6  1  0
 14  8  1  0
 15 11  1  0
 16 13  1  0
  5  7  1  0
 12  8  1  0
 15 16  1  0
M  END
> <chembl_id>
CHEMBL1079

> <chembl_pref_name>
TIZANIDINE

$$$$

     RDKit          2D

 10  6  0  0  0  0  0  0  0  0999 V2000
    0.4625   -3.8417    0.0000 Na  0  0  0  0  0 15  0  0  0  0  0  0
    2.6375   -3.7667    0.0000 P   0  0  0  0  0  0  0  0  0  0  0  0
    2.0250   -4.1250    0.0000 C   0  0  0  0  0  0  0  0  0  0  0  0
    3.2500   -4.1250    0.0000 O   0  0  0  0  0  0  0  0  0  0  0  0
    2.9875   -3.1500    0.0000 O   0  0  0  0  0  0  0  0  0  0  0  0
    2.2792   -3.1500    0.0000 O   0  0  0  0  0  0  0  0  0  0  0  0
    1.4083   -3.7667    0.0000 O   0  0  0  0  0  0  0  0  0  0  0  0
    2.0250   -4.8292    0.0000 O   0  0  0  0  0  0  0  0  0  0  0  0
    3.9292   -3.1250    0.0000 Na  0  0  0  0  0 15  0  0  0  0  0  0
    3.9292   -4.1250    0.0000 Na  0  0  0  0  0 15  0  0  0  0  0  0
  3  2  1  0
  4  2  1  0
  5  2  1  0
  6  2  2  0
  7  3  1  0
  8  3  2  0
M  CHG  6   1   1   4  -1   5  -1   7  -1   9   1  10   1
M  END
> <chembl_id>
CHEMBL754

> <chembl_pref_name>
FOSCARNET SODIUM

$$$$

     RDKit          2D

 21 22  0  0  0  0  0  0  0  0999 V2000
    2.4625   -6.2500    0.0000 Cl  0  0  0  0  0  0  0  0  0  0  0  0
    3.1417   -4.7292    0.0000 C   0  0  0  0  0  0  0  0  0  0  0  0
    3.7875   -4.4250    0.0000 C   0  0  0  0  0  0  0  0  0  0  0  0
    2.5042   -4.4250    0.0000 C   0  0  0  0  0  0  0  0  0  0  0  0
    3.1417   -5.4292    0.0000 C   0  0  0  0  0  0  0  0  0  0  0  0
    3.9542   -3.7417    0.0000 C   0  0  0  0  0  0  0  0  0  0  0  0
    2.3542   -3.7292    0.0000 C   0  0  0  0  0  0  0  0  0  0  0  0
    3.5042   -3.1750    0.0000 C   0  0  0  0  0  0  0  0  0  0  0  0
    2.8000   -3.1750    0.0000 C   0  0  0  0  0  0  0  0  0  0  0  0
    4.3292   -6.8500    0.0000 N   0  0  0  0  0  0  0  0  0  0  0  0
    4.2917   -4.9292    0.0000 C   0  0  0  0  0  0  0  0  0  0  0  0
    1.9792   -4.8917    0.0000 C   0  0  0  0  0  0  0  0  0  0  0  0
    3.7250   -5.7875    0.0000 C   0  0  0  0  0  0  0  0  0  0  0  0
    4.6542   -3.5417    0.0000 C   0  0  0  0  0  0  0  0  0  0  0  0
    1.6792   -3.5125    0.0000 C   0  0  0  0  0  0  0  0  0  0  0  0
    3.7292   -6.4917    0.0000 C   0  0  0  0  0  0  0  0  0  0  0  0
    4.9292   -6.5042    0.0000 C   0  0  0  0  0  0  0  0  0  0  0  0
    4.9792   -4.7542    0.0000 C   0  0  0  0  0  0  0  0  0  0  0  0
    1.3042   -4.6875    0.0000 C   0  0  0  0  0  0  0  0  0  0  0  0
    1.1417   -3.9750    0.0000 C   0  0  0  0  0  0  0  0  0  0  0  0
    5.1625   -4.0542    0.0000 C   0  0  0  0  0  0  0  0  0  0  0  0
  3  2  1  0
  4  2  1  0
  5  2  2  0
  6  3  2  0
  7  4  2  0
  8  6  1  0
  9  7  1  0
 10 16  1  0
 11  3  1  0
 12  4  1  0
 13  5  1  0
 14  6  1  0
 15  7  1  0
 16 13  1  0
 17 10  1  0
 18 11  2  0
 19 12  2  0
 20 19  1  0
 21 18  1  0
  9  8  1  0
 20 15  2  0
 21 14  2  0
M  END
> <chembl_id>
CHEMBL1201156

> <chembl_pref_name>
NORTRIPTYLINE HYDROCHLORIDE

$$$$

     RDKit          2D

 16 15  0  0  0  0  0  0  0  0999 V2000
    5.9875   -5.0042    0.0000 C   0  0  0  0  0  0  0  0  0  0  0  0
    4.1500   -4.6417    0.0000 C   0  0  0  0  0  0  0  0  0  0  0  0
    4.7625   -4.9917    0.0000 S   0  0  0  0  0  0  0  0  0  0  0  0
    5.3667   -4.6542    0.0000 S   0  0  0  0  0  0  0  0  0  0  0  0
    5.9750   -5.7167    0.0000 S   0  0  0  0  0  0  0  0  0  0  0  0
    4.1542   -3.9292    0.0000 S   0  0  0  0  0  0  0  0  0  0  0  0
    3.5292   -4.9917    0.0000 N   0  0  0  0  0  0  0  0  0  0  0  0
    6.6042   -4.6500    0.0000 N   0  0  0  0  0  0  0  0  0  0  0  0
    7.2167   -5.0167    0.0000 C   0  0  0  0  0  0  0  0  0  0  0  0
    6.6125   -3.9542    0.0000 C   0  0  0  0  0  0  0  0  0  0  0  0
    2.9167   -4.6292    0.0000 C   0  0  0  0  0  0  0  0  0  0  0  0
    3.5167   -5.7000    0.0000 C   0  0  0  0  0  0  0  0  0  0  0  0
    7.8417   -4.6625    0.0000 C   0  0  0  0  0  0  0  0  0  0  0  0
    7.2292   -3.6000    0.0000 C   0  0  0  0  0  0  0  0  0  0  0  0
    2.2917   -4.9792    0.0000 C   0  0  0  0  0  0  0  0  0  0  0  0
    2.9000   -6.0417    0.0000 C   0  0  0  0  0  0  0  0  0  0  0  0
  2  3  1  0
  3  4  1  0
  4  1  1  0
  5  1  2  0
  6  2  2  0
  7  2  1  0
  8  1  1  0
  9  8  1  0
 10  8  1  0
 11  7  1  0
 12  7  1  0
 13  9  1  0
 14 10  1  0
 15 11  1  0
 16 12  1  0
M  END
> <chembl_id>
CHEMBL964

> <chembl_pref_name>
DISULFIRAM

$$$$

     RDKit          2D

 10  9  0  0  0  0  0  0  0  0999 V2000
    3.8167    2.2125    0.0000 N   0  0  0  0  0  0  0  0  0  0  0  0
   -3.0208   -0.8542    0.0000 C   0  0  0  0  0  0  0  0  0  0  0  0
   -3.7375    0.3708    0.0000 O   0  0  0  0  0  0  0  0  0  0  0  0
   -1.5833   -0.8542    0.0000 C   0  0  0  0  0  0  0  0  0  0  0  0
   -3.7375   -2.1167    0.0000 O   0  0  0  0  0  0  0  0  0  0  0  0
   -0.8750   -2.1167    0.0000 C   0  0  0  0  0  0  0  0  0  0  0  0
   -0.8750    0.3708    0.0000 C   0  0  0  0  0  0  0  0  0  0  0  0
    0.5542    0.3708    0.0000 C   0  0  0  0  0  0  0  0  0  0  0  0
    0.5542   -2.1167    0.0000 C   0  0  0  0  0  0  0  0  0  0  0  0
    1.2792   -0.8542    0.0000 C   0  0  0  0  0  0  0  0  0  0  0  0
  3  2  2  0
  4  2  1  0
  5  2  1  0
  6  4  2  0
  7  4  1  0
  8  7  2  0
  9  6  1  0
 10  9  2  0
  8 10  1  0
M  END
> <chembl_id>
CHEMBL2105970

> <chembl_pref_name>
AMMONIUM BENZOATE

$$$$

     RDKit          2D

 12 13  0  0  0  0  0  0  0  0999 V2000
    0.7947    1.3313    0.0000 Cl  0  0  0  0  0  0  0  0  0  0  0  0
   -3.3444   -0.5918    0.0000 C   0  0  0  0  0  0  0  0  0  0  0  0
   -2.6984    0.0969    0.0000 C   0  0  0  0  0  0  0  0  0  0  0  0
   -2.5340   -0.3651    0.0000 C   0  0  0  0  0  0  0  0  0  0  0  0
   -1.9818   -0.1635    0.0000 C   0  0  0  0  0  0  0  0  0  0  0  0
   -1.7757   -0.6659    0.0000 C   0  0  0  0  0  0  0  0  0  0  0  0
   -1.2284    0.0234    0.0000 C   0  0  0  0  0  0  0  0  0  0  0  0
   -2.5367    0.4937    0.0000 C   0  0  0  0  0  0  0  0  0  0  0  0
   -1.9760    1.1565    0.0000 C   0  0  0  0  0  0  0  0  0  0  0  0
   -2.7029    0.9025    0.0000 C   0  0  0  0  0  0  0  0  0  0  0  0
   -1.2225    0.8484    0.0000 C   0  0  0  0  0  0  0  0  0  0  0  0
   -1.6438    1.9183    0.0000 N   0  0  0  0  0  0  0  0  0  0  0  0
  2  3  1  0
  2  4  1  0
  3  5  1  0
  4  6  1  0
  5  7  1  0
  6  7  1  0
  8  9  1  0
  4  8  1  0
  3 10  1  0
  7 11  1  0
 11  9  1  0
  9 10  1  0
  9 12  1  0
M  END
> <chembl_id>
CHEMBL1569

> <chembl_pref_name>
AMANTADINE HYDROCHLORIDE

$$$$

     RDKit          2D

 20 21  0  0  0  0  0  0  0  0999 V2000
    8.0533   -1.4346    0.0000 Na  0  0  0  0  0 15  0  0  0  0  0  0
    6.8814   -0.3670    0.0000 N   0  0  0  0  0  0  0  0  0  0  0  0
    6.2058    0.1126    0.0000 C   0  0  0  0  0  0  0  0  0  0  0  0
    5.5427   -0.3670    0.0000 C   0  0  0  0  0  0  0  0  0  0  0  0
    6.6187   -1.1553    0.0000 C   0  0  0  0  0  0  0  0  0  0  0  0
    5.7929   -1.1553    0.0000 N   0  0  0  0  0  0  0  0  0  0  0  0
    6.2058    0.9384    0.0000 O   0  0  0  0  0  0  0  0  0  0  0  0
    7.1067   -1.8184    0.0000 O   0  0  0  0  0  0  0  0  0  0  0  0
    5.1298    0.3461    0.0000 C   0  0  0  0  0  0  0  0  0  0  0  0
    4.7837   -0.7049    0.0000 C   0  0  0  0  0  0  0  0  0  0  0  0
    4.7704   -1.5342    0.0000 C   0  0  0  0  0  0  0  0  0  0  0  0
    4.3040    0.3461    0.0000 C   0  0  0  0  0  0  0  0  0  0  0  0
    5.5427    1.0593    0.0000 C   0  0  0  0  0  0  0  0  0  0  0  0
    4.0796   -0.2715    0.0000 C   0  0  0  0  0  0  0  0  0  0  0  0
    3.8911    1.0593    0.0000 C   0  0  0  0  0  0  0  0  0  0  0  0
    5.1298    1.7725    0.0000 C   0  0  0  0  0  0  0  0  0  0  0  0
    3.3582   -0.6679    0.0000 C   0  0  0  0  0  0  0  0  0  0  0  0
    4.0403   -1.9273    0.0000 C   0  0  0  0  0  0  0  0  0  0  0  0
    3.3366   -1.4981    0.0000 C   0  0  0  0  0  0  0  0  0  0  0  0
    4.3040    1.7725    0.0000 C   0  0  0  0  0  0  0  0  0  0  0  0
  3  2  1  0
  4  3  1  0
  5  2  2  0
  6  5  1  0
  7  3  2  0
  8  5  1  0
  9  4  1  0
 10  4  1  0
 11 10  2  0
 12  9  2  0
 13  9  1  0
 14 10  1  0
 15 12  1  0
 16 13  2  0
 17 14  2  0
 18 11  1  0
 19 18  2  0
 20 16  1  0
  4  6  1  0
 17 19  1  0
 15 20  2  0
M  CHG  2   1   1   8  -1
M  END
> <chembl_id>
CHEMBL1611

> <chembl_pref_name>
PHENYTOIN SODIUM

$$$$

     RDKit          2D

 20 22  0  0  0  0  0  0  0  0999 V2000
    0.5417    1.6958    0.0000 C   0  0  0  0  0  0  0  0  0  0  0  0
    3.0417    2.9458    0.0000 N   0  0  0  0  0  0  0  0  0  0  0  0
    1.2792    2.4583    0.0000 C   0  0  0  0  0  0  0  0  0  0  0  0
   -0.4708    1.9458    0.0000 C   0  0  0  0  0  0  0  0  0  0  0  0
    0.8375    0.6833    0.0000 C   0  0  0  0  0  0  0  0  0  0  0  0
    2.3000    2.1958    0.0000 C   0  0  0  0  0  0  0  0  0  0  0  0
    4.0625    2.6750    0.0000 C   0  0  0  0  0  0  0  0  0  0  0  0
    0.1167   -0.0625    0.0000 C   0  0  0  0  0  0  0  0  0  0  0  0
   -0.7625    2.9458    0.0000 C   0  0  0  0  0  0  0  0  0  0  0  0
   -1.1958    1.1750    0.0000 C   0  0  0  0  0  0  0  0  0  0  0  0
    1.8500    0.4375    0.0000 C   0  0  0  0  0  0  0  0  0  0  0  0
    2.5792    1.1833    0.0000 C   0  0  0  0  0  0  0  0  0  0  0  0
    4.3417    1.6625    0.0000 C   0  0  0  0  0  0  0  0  0  0  0  0
   -1.7833    3.1958    0.0000 C   0  0  0  0  0  0  0  0  0  0  0  0
   -2.2125    1.4208    0.0000 C   0  0  0  0  0  0  0  0  0  0  0  0
    2.1417   -0.5750    0.0000 C   0  0  0  0  0  0  0  0  0  0  0  0
    0.4042   -1.0542    0.0000 C   0  0  0  0  0  0  0  0  0  0  0  0
    3.6000    0.9250    0.0000 C   0  0  0  0  0  0  0  0  0  0  0  0
    1.4375   -1.3125    0.0000 C   0  0  0  0  0  0  0  0  0  0  0  0
   -2.5208    2.4208    0.0000 C   0  0  0  0  0  0  0  0  0  0  0  0
  2  6  1  0
  3  1  1  0
  4  1  1  0
  5  1  1  0
  6  3  1  0
  7  2  1  0
  8  5  1  0
  9  4  1  0
 10  4  1  0
 11  5  1  0
 12  6  1  0
 13  7  1  0
 14  9  1  0
 15 10  1  0
 16 11  1  0
 17  8  1  0
 18 12  1  0
 19 16  1  0
 20 15  1  0
 17 19  1  0
 14 20  1  0
 18 13  1  0
M  END
> <chembl_id>
CHEMBL75880

> <chembl_pref_name>
PERHEXILINE

$$$$

     RDKit          2D

 12 13  0  0  0  0  0  0  0  0999 V2000
    7.1171   -2.8288    0.0000 N   0  0  0  0  0  0  0  0  0  0  0  0
    7.8316   -2.4163    0.0000 N   0  0  0  0  0  0  0  0  0  0  0  0
    7.8316   -1.5913    0.0000 C   0  0  0  0  0  0  0  0  0  0  0  0
    7.1171   -1.1788    0.0000 N   0  0  0  0  0  0  0  0  0  0  0  0
    7.1171   -0.3538    0.0000 N   0  0  0  0  0  0  0  0  0  0  0  0
    7.8316    0.0587    0.0000 C   0  0  0  0  0  0  0  0  0  0  0  0
    8.5461   -0.3538    0.0000 C   0  0  0  0  0  0  0  0  0  0  0  0
    9.2605    0.0587    0.0000 C   0  0  0  0  0  0  0  0  0  0  0  0
    9.9750   -0.3538    0.0000 C   0  0  0  0  0  0  0  0  0  0  0  0
    9.9750   -1.1788    0.0000 C   0  0  0  0  0  0  0  0  0  0  0  0
    9.2605   -1.5913    0.0000 C   0  0  0  0  0  0  0  0  0  0  0  0
    8.5461   -1.1788    0.0000 C   0  0  0  0  0  0  0  0  0  0  0  0
  1  2  1  0
  2  3  1  0
  3  4  2  0
  4  5  1  0
  5  6  2  0
  6  7  1  0
  7  8  2  0
  8  9  1  0
  9 10  2  0
 10 11  1  0
 11 12  2  0
  3 12  1  0
  7 12  1  0
M  END
> <chembl_id>
CHEMBL276832

> <chembl_pref_name>
HYDRALAZINE

$$$$

     RDKit          2D

 21 23  0  0  0  0  0  0  0  0999 V2000
  -20.3009  -14.9384    0.0000 C   0  0  0  0  0  0  0  0  0  0  0  0
  -21.0154  -15.3509    0.0000 C   0  0  0  0  0  0  0  0  0  0  0  0
  -21.0154  -16.1759    0.0000 C   0  0  0  0  0  0  0  0  0  0  0  0
  -20.3009  -16.5884    0.0000 C   0  0  0  0  0  0  0  0  0  0  0  0
  -19.5864  -16.1759    0.0000 C   0  0  0  0  0  0  0  0  0  0  0  0
  -19.5864  -15.3509    0.0000 C   0  0  0  0  0  0  0  0  0  0  0  0
  -21.7299  -16.5884    0.0000 C   0  0  0  0  0  0  0  0  0  0  0  0
  -18.8719  -16.5884    0.0000 C   0  0  0  0  0  0  0  0  0  0  0  0
  -18.8719  -14.9384    0.0000 S   0  0  0  0  0  0  0  0  0  0  0  0
  -18.8719  -14.1134    0.0000 C   0  0  0  0  0  0  0  0  0  0  0  0
  -18.1574  -13.7009    0.0000 C   0  0  0  0  0  0  0  0  0  0  0  0
  -18.1574  -12.8759    0.0000 C   0  0  0  0  0  0  0  0  0  0  0  0
  -18.8719  -12.4634    0.0000 C   0  0  0  0  0  0  0  0  0  0  0  0
  -19.5864  -12.8759    0.0000 C   0  0  0  0  0  0  0  0  0  0  0  0
  -19.5864  -13.7009    0.0000 C   0  0  0  0  0  0  0  0  0  0  0  0
  -17.4430  -14.1134    0.0000 N   0  0  0  0  0  0  0  0  0  0  0  0
  -17.4430  -14.9384    0.0000 C   0  0  0  0  0  0  0  0  0  0  0  0
  -16.7285  -15.3509    0.0000 C   0  0  0  0  0  0  0  0  0  0  0  0
  -16.0140  -14.9384    0.0000 N   0  0  0  0  0  0  0  0  0  0  0  0
  -16.0140  -14.1134    0.0000 C   0  0  0  0  0  0  0  0  0  0  0  0
  -16.7285  -13.7009    0.0000 C   0  0  0  0  0  0  0  0  0  0  0  0
  1  2  1  0
  1  6  2  0
  2  3  2  0
  3  4  1  0
  4  5  2  0
  5  6  1  0
  3  7  1  0
  5  8  1  0
  6  9  1  0
  9 10  1  0
 10 11  1  0
 10 15  2  0
 11 12  2  0
 12 13  1  0
 13 14  2  0
 14 15  1  0
 11 16  1  0
 16 17  1  0
 21 16  1  0
 17 18  1  0
 18 19  1  0
 19 20  1  0
 20 21  1  0
M  END
> <chembl_id>
CHEMBL2104993

> <chembl_pref_name>
VORTIOXETINE

$$$$

     RDKit          2D

 11 12  0  0  0  0  0  0  0  0999 V2000
    3.8917   -4.7875    0.0000 C   0  0  0  0  0  0  0  0  0  0  0  0
    4.3167   -4.2125    0.0000 N   0  0  0  0  0  0  0  0  0  0  0  0
    4.3042   -5.3542    0.0000 O   0  0  0  0  0  0  0  0  0  0  0  0
    4.9917   -4.4292    0.0000 C   0  0  0  0  0  0  0  0  0  0  0  0
    4.9917   -5.1375    0.0000 C   0  0  0  0  0  0  0  0  0  0  0  0
    5.6000   -4.0792    0.0000 C   0  0  0  0  0  0  0  0  0  0  0  0
    3.1792   -4.7875    0.0000 O   0  0  0  0  0  0  0  0  0  0  0  0
    5.6000   -5.4917    0.0000 C   0  0  0  0  0  0  0  0  0  0  0  0
    6.2167   -4.4417    0.0000 C   0  0  0  0  0  0  0  0  0  0  0  0
    6.2167   -5.1417    0.0000 C   0  0  0  0  0  0  0  0  0  0  0  0
    6.8417   -4.0792    0.0000 Cl  0  0  0  0  0  0  0  0  0  0  0  0
  2  1  1  0
  3  1  1  0
  4  2  1  0
  5  3  1  0
  6  4  1  0
  7  1  2  0
  8  5  1  0
  9  6  2  0
 10  8  2  0
 11  9  1  0
  4  5  2  0
  9 10  1  0
M  END
> <chembl_id>
CHEMBL1371

> <chembl_pref_name>
CHLORZOXAZONE

$$$$

     RDKit          2D

 16 17  0  0  0  0  0  0  0  0999 V2000
    3.0000   -6.0542    0.0000 C   0  0  0  0  0  0  0  0  0  0  0  0
    2.3792   -5.7000    0.0000 C   0  0  0  0  0  0  0  0  0  0  0  0
    3.0000   -6.7667    0.0000 C   0  0  0  0  0  0  0  0  0  0  0  0
    1.7667   -6.0542    0.0000 N   0  0  0  0  0  0  0  0  0  0  0  0
    2.3792   -7.1167    0.0000 N   0  0  0  0  0  0  0  0  0  0  0  0
    1.7667   -6.7667    0.0000 C   0  0  0  0  0  0  0  0  0  0  0  0
    3.3500   -5.4417    0.0000 C   0  0  0  0  0  0  0  0  0  0  0  0
    3.6125   -7.1167    0.0000 O   0  0  0  0  0  0  0  0  0  0  0  0
    2.3792   -4.9917    0.0000 O   0  0  0  0  0  0  0  0  0  0  0  0
    3.7042   -6.0167    0.0000 C   0  0  0  0  0  0  0  0  0  0  0  0
    3.0042   -4.8292    0.0000 C   0  0  0  0  0  0  0  0  0  0  0  0
    4.0625   -5.4417    0.0000 C   0  0  0  0  0  0  0  0  0  0  0  0
    4.0917   -6.6125    0.0000 C   0  0  0  0  0  0  0  0  0  0  0  0
    3.3542   -4.2125    0.0000 C   0  0  0  0  0  0  0  0  0  0  0  0
    4.4167   -4.8292    0.0000 C   0  0  0  0  0  0  0  0  0  0  0  0
    4.0667   -4.2125    0.0000 C   0  0  0  0  0  0  0  0  0  0  0  0
  2  1  1  0
  3  1  1  0
  4  2  1  0
  5  3  1  0
  6  5  1  0
  7  1  1  0
  8  3  2  0
  9  2  2  0
 10  1  1  0
 11  7  2  0
 12  7  1  0
 13 10  1  0
 14 11  1  0
 15 12  2  0
 16 15  1  0
  6  4  1  0
 16 14  2  0
M  END
> <chembl_id>
CHEMBL856

> <chembl_pref_name>
PRIMIDONE

$$$$

     RDKit          2D

 18 19  0  0  0  0  0  0  0  0999 V2000
    3.3000   -0.0125    0.0000 C   0  0  0  0  0  0  0  0  0  0  0  0
    1.4125    0.0000    0.0000 C   0  0  0  0  0  0  0  0  0  0  0  0
    2.3792   -0.5542    0.0000 C   0  0  0  0  0  0  0  0  0  0  0  0
    0.4917   -0.5417    0.0000 C   0  0  0  0  0  0  0  0  0  0  0  0
    3.3167    1.0625    0.0000 O   0  0  0  0  0  0  0  0  0  0  0  0
   -0.4833    0.0208    0.0000 C   0  0  0  0  0  0  0  0  0  0  0  0
   -1.4708   -0.5167    0.0000 O   0  0  0  0  0  0  0  0  0  0  0  0
    4.2625   -0.5667    0.0000 O   0  0  0  0  0  0  0  0  0  0  0  0
   -2.4458    0.0083    0.0000 C   0  0  0  0  0  0  0  0  0  0  0  0
    1.4292    1.0833    0.0000 C   0  0  0  0  0  0  0  0  0  0  0  0
    0.4667    1.6375    0.0000 C   0  0  0  0  0  0  0  0  0  0  0  0
   -0.4875    1.1083    0.0000 C   0  0  0  0  0  0  0  0  0  0  0  0
    2.3542   -1.6292    0.0000 C   0  0  0  0  0  0  0  0  0  0  0  0
   -3.3500   -0.5792    0.0000 C   0  0  0  0  0  0  0  0  0  0  0  0
   -2.4458    1.1083    0.0000 C   0  0  0  0  0  0  0  0  0  0  0  0
   -4.3458   -0.0500    0.0000 C   0  0  0  0  0  0  0  0  0  0  0  0
   -3.4625    1.5958    0.0000 C   0  0  0  0  0  0  0  0  0  0  0  0
   -4.3458    1.0083    0.0000 C   0  0  0  0  0  0  0  0  0  0  0  0
  2  3  1  0
  3  1  1  0
  4  2  1  0
  5  1  2  0
  6  4  2  0
  7  6  1  0
  8  1  1  0
  9  7  1  0
 10  2  2  0
 11 10  1  0
 12 11  2  0
 13  3  1  0
 14  9  2  0
 15  9  1  0
 16 14  1  0
 17 15  2  0
 18 17  1  0
  6 12  1  0
 16 18  2  0
M  END
> <chembl_id>
CHEMBL1297

> <chembl_pref_name>
FENOPROFEN

$$$$

     RDKit          2D

 17 17  0  0  0  0  0  0  0  0999 V2000
   -0.5333   -1.7917    0.0000 C   0  0  0  0  0  0  0  0  0  0  0  0
   -1.7500   -1.7917    0.0000 C   0  0  0  0  0  0  0  0  0  0  0  0
   -1.1375   -2.1542    0.0000 N   0  0  0  0  0  0  0  0  0  0  0  0
    0.0750   -2.1542    0.0000 N   0  0  0  0  0  0  0  0  0  0  0  0
   -0.5333   -1.0917    0.0000 N   0  0  0  0  0  0  0  0  0  0  0  0
   -1.7500   -1.0917    0.0000 N   0  0  0  0  0  0  0  0  0  0  0  0
   -2.3750   -2.1542    0.0000 N   0  0  0  0  0  0  0  0  0  0  0  0
    0.7042   -1.7917    0.0000 C   0  0  0  0  0  0  0  0  0  0  0  0
    1.9292   -1.0917    0.0000 C   0  0  0  0  0  0  0  0  0  0  0  0
    2.5542   -0.7292    0.0000 Cl  0  0  0  0  0  0  0  0  0  0  0  0
    1.3167   -2.1417    0.0000 C   0  0  0  0  0  0  0  0  0  0  0  0
    0.7042   -1.0917    0.0000 C   0  0  0  0  0  0  0  0  0  0  0  0
    1.3167   -0.7375    0.0000 C   0  0  0  0  0  0  0  0  0  0  0  0
    1.9292   -1.7917    0.0000 C   0  0  0  0  0  0  0  0  0  0  0  0
   -2.9875   -1.7917    0.0000 C   0  0  0  0  0  0  0  0  0  0  0  0
   -3.6083   -2.1542    0.0000 C   0  0  0  0  0  0  0  0  0  0  0  0
   -2.9875   -1.0917    0.0000 C   0  0  0  0  0  0  0  0  0  0  0  0
  2  3  1  0
  3  1  1  0
  4  1  1  0
  5  1  2  0
  6  2  2  0
  7  2  1  0
  8  4  1  0
  9 14  2  0
 10  9  1  0
 11  8  2  0
 12  8  1  0
 13 12  2  0
 14 11  1  0
 15  7  1  0
 16 15  1  0
 17 15  1  0
  9 13  1  0
M  END
> <chembl_id>
CHEMBL1377

> <chembl_pref_name>
CHLOROGUANIDE

$$$$

     RDKit          2D

 10 10  0  0  0  0  0  0  0  0999 V2000
   -0.0958    0.0083    0.0000 C   0  0  0  0  0  0  0  0  0  0  0  0
   -0.0958   -1.4292    0.0000 N   0  0  0  0  0  0  0  0  0  0  0  0
   -1.3333    0.7333    0.0000 N   0  0  0  0  0  0  0  0  0  0  0  0
    1.1417    0.7333    0.0000 N   0  0  0  0  0  0  0  0  0  0  0  0
   -2.5750   -1.4292    0.0000 C   0  0  0  0  0  0  0  0  0  0  0  0
   -2.5750    0.0083    0.0000 C   0  0  0  0  0  0  0  0  0  0  0  0
   -1.3333   -2.1500    0.0000 C   0  0  0  0  0  0  0  0  0  0  0  0
    1.1417    2.1583    0.0000 C   0  0  0  0  0  0  0  0  0  0  0  0
   -0.2625    2.1583    0.0000 C   0  0  0  0  0  0  0  0  0  0  0  0
    2.5667    2.1583    0.0000 C   0  0  0  0  0  0  0  0  0  0  0  0
  2  1  2  0
  3  1  1  0
  4  1  1  0
  5  6  1  0
  6  3  2  0
  7  2  1  0
  8  4  1  0
  9  8  1  0
 10  8  1  0
  7  5  2  0
M  END
> <chembl_id>
CHEMBL1740513

> <chembl_pref_name>
ISAXONINE

$$$$

     RDKit          2D

 20 21  0  0  0  0  0  0  0  0999 V2000
    6.3000   -5.5167    0.0000 C   0  0  0  0  0  0  0  0  0  0  0  0
    6.3000   -6.2292    0.0000 N   0  0  0  0  0  0  0  0  0  0  0  0
    6.9167   -5.1542    0.0000 C   0  0  0  0  0  0  0  0  0  0  0  0
    5.6875   -4.4542    0.0000 C   0  0  0  0  0  0  0  0  0  0  0  0
    5.6875   -5.1542    0.0000 C   0  0  0  0  0  0  0  0  0  0  0  0
    6.9167   -4.4542    0.0000 C   0  0  0  0  0  0  0  0  0  0  0  0
    5.0667   -4.1042    0.0000 C   0  0  0  0  0  0  0  0  0  0  0  0
    6.3000   -4.0792    0.0000 C   0  0  0  0  0  0  0  0  0  0  0  0
    6.9167   -6.5750    0.0000 O   0  0  0  0  0  0  0  0  0  0  0  0
    5.6875   -6.5667    0.0000 O   0  0  0  0  0  0  0  0  0  0  0  0
    4.4500   -4.4792    0.0000 C   0  0  0  0  0  0  0  0  0  0  0  0
    5.0667   -3.4125    0.0000 O   0  0  0  0  0  0  0  0  0  0  0  0
    3.8375   -4.1167    0.0000 C   0  0  0  0  0  0  0  0  0  0  0  0
    4.4500   -5.1875    0.0000 C   0  0  0  0  0  0  0  0  0  0  0  0
    7.5375   -5.4917    0.0000 O   0  0  0  0  0  0  0  0  0  0  0  0
    7.5375   -4.1042    0.0000 O   0  0  0  0  0  0  0  0  0  0  0  0
    3.2167   -4.4792    0.0000 C   0  0  0  0  0  0  0  0  0  0  0  0
    3.8375   -5.5500    0.0000 C   0  0  0  0  0  0  0  0  0  0  0  0
    3.2167   -5.1875    0.0000 C   0  0  0  0  0  0  0  0  0  0  0  0
    2.6042   -5.5292    0.0000 C   0  0  0  0  0  0  0  0  0  0  0  0
  2  1  1  0
  3  1  2  0
  4  5  2  0
  5  1  1  0
  6  3  1  0
  7  4  1  0
  8  4  1  0
  9  2  1  0
 10  2  2  0
 11  7  1  0
 12  7  2  0
 13 11  2  0
 14 11  1  0
 15  3  1  0
 16  6  1  0
 17 13  1  0
 18 14  2  0
 19 18  1  0
 20 19  1  0
  8  6  2  0
 19 17  2  0
M  CHG  2   2   1   9  -1
M  END
> <chembl_id>
CHEMBL1324

> <chembl_pref_name>
TOLCAPONE

$$$$

     RDKit          2D

 12 11  0  0  0  0  0  0  0  0999 V2000
    5.5167   -5.0000    0.0000 Cl  0  0  0  0  0  0  0  0  0  0  0  0
    3.8292   -5.1792    0.0000 N   0  0  0  0  0  0  0  0  0  0  0  0
    3.2167   -4.1292    0.0000 C   0  0  0  0  0  0  0  0  0  0  0  0
    2.6000   -4.4917    0.0000 C   0  0  0  0  0  0  0  0  0  0  0  0
    3.8292   -4.4792    0.0000 C   0  0  0  0  0  0  0  0  0  0  0  0
    4.4292   -5.5292    0.0000 C   0  0  0  0  0  0  0  0  0  0  0  0
    1.9792   -4.1292    0.0000 C   0  0  0  0  0  0  0  0  0  0  0  0
    2.6000   -5.2042    0.0000 C   0  0  0  0  0  0  0  0  0  0  0  0
    4.4375   -4.1167    0.0000 C   0  0  0  0  0  0  0  0  0  0  0  0
    1.3667   -4.4917    0.0000 C   0  0  0  0  0  0  0  0  0  0  0  0
    1.9792   -5.5667    0.0000 C   0  0  0  0  0  0  0  0  0  0  0  0
    1.3667   -5.2042    0.0000 C   0  0  0  0  0  0  0  0  0  0  0  0
  3  5  1  0
  4  3  1  0
  5  2  1  6
  6  2  1  0
  7  4  1  0
  8  4  2  0
  9  5  1  0
 10  7  2  0
 11  8  1  0
 12 10  1  0
 12 11  2  0
M  END
> <chembl_id>
CHEMBL1200952

> <chembl_pref_name>
METHAMPHETAMINE HYDROCHLORIDE

$$$$

     RDKit          2D

 20 22  0  0  0  0  0  0  0  0999 V2000
   -0.6208    0.5250    0.0000 N   0  0  0  0  0  0  0  0  0  0  0  0
    0.6000   -1.6000    0.0000 C   0  0  0  0  0  0  0  0  0  0  0  0
    3.0917    2.6583    0.0000 N   0  0  0  0  0  0  0  0  0  0  0  0
    0.7417   -3.0167    0.0000 S   0  0  0  0  0  0  0  0  0  0  0  0
    0.6125    1.2458    0.0000 C   0  0  0  0  0  0  0  0  0  0  0  0
   -0.6208   -0.9000    0.0000 C   0  0  0  0  0  0  0  0  0  0  0  0
    1.8417    0.5250    0.0000 C   0  0  0  0  0  0  0  0  0  0  0  0
    0.6125    2.6583    0.0000 C   0  0  0  0  0  0  0  0  0  0  0  0
    2.1292   -3.3000    0.0000 C   0  0  0  0  0  0  0  0  0  0  0  0
   -1.8625    1.2458    0.0000 C   0  0  0  0  0  0  0  0  0  0  0  0
    1.8792   -1.0125    0.0000 C   0  0  0  0  0  0  0  0  0  0  0  0
    2.8417   -2.0500    0.0000 C   0  0  0  0  0  0  0  0  0  0  0  0
    3.0917    1.2458    0.0000 C   0  0  0  0  0  0  0  0  0  0  0  0
    1.8417    3.3708    0.0000 C   0  0  0  0  0  0  0  0  0  0  0  0
    4.3417    3.3583    0.0000 C   0  0  0  0  0  0  0  0  0  0  0  0
   -3.1000    0.5250    0.0000 C   0  0  0  0  0  0  0  0  0  0  0  0
   -1.8625    2.6583    0.0000 C   0  0  0  0  0  0  0  0  0  0  0  0
   -3.1000    3.3708    0.0000 C   0  0  0  0  0  0  0  0  0  0  0  0
   -4.3458    1.2458    0.0000 C   0  0  0  0  0  0  0  0  0  0  0  0
   -4.3458    2.6583    0.0000 C   0  0  0  0  0  0  0  0  0  0  0  0
  2  6  1  0
  3 14  1  0
  4  2  1  0
  5  1  1  0
  6  1  1  0
  7  5  1  0
  8  5  1  0
  9  4  1  0
 10  1  1  0
 11  2  2  0
 12 11  1  0
 13  7  1  0
 14  8  1  0
 15  3  1  0
 16 10  1  0
 17 10  2  0
 18 17  1  0
 19 16  2  0
 20 18  2  0
 13  3  1  0
 19 20  1  0
 12  9  2  0
M  END
> <chembl_id>
CHEMBL2105458

> <chembl_pref_name>
THENALIDINE

$$$$

     RDKit          2D

 14 14  0  0  0  0  0  0  0  0999 V2000
   -0.3625    1.0625    0.0000 C   0  0  0  0  0  0  0  0  0  0  0  0
   -0.9458    1.4708    0.0000 S   0  0  0  0  0  0  0  0  0  0  0  0
   -1.5208    1.0625    0.0000 C   0  0  0  0  0  0  0  0  0  0  0  0
    0.2500    1.4208    0.0000 S   0  0  0  0  0  0  0  0  0  0  0  0
   -0.5875    0.3708    0.0000 N   0  0  0  0  0  0  0  0  0  0  0  0
   -1.2958    0.3708    0.0000 N   0  0  0  0  0  0  0  0  0  0  0  0
   -2.1875    1.3125    0.0000 N   0  0  0  0  0  0  0  0  0  0  0  0
   -2.8083    0.9833    0.0000 C   0  0  0  0  0  0  0  0  0  0  0  0
    0.6000    2.0375    0.0000 O   0  0  0  0  0  0  0  0  0  0  0  0
   -0.1083    2.0375    0.0000 O   0  0  0  0  0  0  0  0  0  0  0  0
    0.8625    1.0708    0.0000 N   0  0  0  0  0  0  0  0  0  0  0  0
   -2.8083    0.2833    0.0000 O   0  0  0  0  0  0  0  0  0  0  0  0
   -1.7083   -0.2167    0.0000 C   0  0  0  0  0  0  0  0  0  0  0  0
   -3.4000    1.3583    0.0000 C   0  0  0  0  0  0  0  0  0  0  0  0
  2  1  1  0
  3  2  1  0
  4  1  1  0
  5  1  2  0
  6  5  1  0
  7  3  2  0
  8  7  1  0
  9  4  2  0
 10  4  2  0
 11  4  1  0
 12  8  2  0
 13  6  1  0
 14  8  1  0
  6  3  1  0
M  END
> <chembl_id>
CHEMBL19

> <chembl_pref_name>
METHAZOLAMIDE

$$$$

     RDKit          2D

 19 20  0  0  0  0  0  0  0  0999 V2000
   -0.1208   -0.1792    0.0000 O   0  0  0  0  0  0  0  0  0  0  0  0
    0.8667   -0.7417    0.0000 C   0  0  0  0  0  0  0  0  0  0  0  0
    1.8542   -0.1667    0.0000 C   0  0  0  0  0  0  0  0  0  0  0  0
   -1.1083   -0.7625    0.0000 C   0  0  0  0  0  0  0  0  0  0  0  0
    2.8500   -0.7375    0.0000 C   0  0  0  0  0  0  0  0  0  0  0  0
   -2.0958   -0.1917    0.0000 C   0  0  0  0  0  0  0  0  0  0  0  0
   -3.0708    1.4333    0.0000 C   0  0  0  0  0  0  0  0  0  0  0  0
   -2.0958    0.8333    0.0000 C   0  0  0  0  0  0  0  0  0  0  0  0
   -4.1250    0.8750    0.0000 O   0  0  0  0  0  0  0  0  0  0  0  0
    0.8667   -1.9000    0.0000 C   0  0  0  0  0  0  0  0  0  0  0  0
    2.8375   -1.9000    0.0000 C   0  0  0  0  0  0  0  0  0  0  0  0
    1.8542    0.9708    0.0000 Cl  0  0  0  0  0  0  0  0  0  0  0  0
   -2.9333    2.5333    0.0000 O   0  0  0  0  0  0  0  0  0  0  0  0
    1.8875   -2.4667    0.0000 C   0  0  0  0  0  0  0  0  0  0  0  0
    3.8750   -2.4250    0.0000 Cl  0  0  0  0  0  0  0  0  0  0  0  0
   -1.1083   -1.9167    0.0000 C   0  0  0  0  0  0  0  0  0  0  0  0
   -3.1083   -0.7542    0.0000 C   0  0  0  0  0  0  0  0  0  0  0  0
   -2.1208   -2.4792    0.0000 C   0  0  0  0  0  0  0  0  0  0  0  0
   -3.1083   -1.9042    0.0000 C   0  0  0  0  0  0  0  0  0  0  0  0
  2  1  1  0
  3  2  1  0
  4  1  1  0
  5  3  2  0
  6  4  1  0
  7  8  1  0
  8  6  1  0
  9  7  2  0
 10  2  2  0
 11 14  2  0
 12  3  1  0
 13  7  1  0
 14 10  1  0
 15 11  1  0
 16  4  2  0
 17  6  2  0
 18 16  1  0
 19 18  2  0
 17 19  1  0
  5 11  1  0
M  END
> <chembl_id>
CHEMBL15677

> <chembl_pref_name>
FENCLOFENAC

$$$$

     RDKit          2D

 11 10  0  0  0  0  0  0  0  0999 V2000
   -0.4833    0.4958    0.0000 C   0  0  0  0  0  0  0  0  0  0  0  0
    0.7542    1.2125    0.0000 P   0  0  0  0  0  0  0  0  0  0  0  0
   -0.4833   -0.9375    0.0000 P   0  0  0  0  0  0  0  0  0  0  0  0
    0.0292    2.4625    0.0000 O   0  0  0  0  0  0  0  0  0  0  0  0
   -0.4958   -2.3625    0.0000 O   0  0  0  0  0  0  0  0  0  0  0  0
   -1.7208    1.2125    0.0000 O   0  0  0  0  0  0  0  0  0  0  0  0
    1.9917    1.9458    0.0000 O   0  0  0  0  0  0  0  0  0  0  0  0
   -1.9208   -0.9250    0.0000 O   0  0  0  0  0  0  0  0  0  0  0  0
    0.9500   -0.9292    0.0000 O   0  0  0  0  0  0  0  0  0  0  0  0
    1.4625   -0.0167    0.0000 O   0  0  0  0  0  0  0  0  0  0  0  0
   -0.8583    1.8833    0.0000 C   0  0  0  0  0  0  0  0  0  0  0  0
  2  1  1  0
  3  1  1  0
  4  2  2  0
  5  3  2  0
  6  1  1  0
  7  2  1  0
  8  3  1  0
  9  3  1  0
 10  2  1  0
 11  1  1  0
M  END
> <chembl_id>
CHEMBL871

> <chembl_pref_name>
ETIDRONIC ACID

$$$$

     RDKit          2D

  3  2  0  0  0  0  0  0  0  0999 V2000
   -0.1125   -0.0542    0.0000 N   0  0  0  0  0  0  0  0  0  0  0  0
    1.3250   -0.0542    0.0000 N   0  0  0  0  0  0  0  0  0  0  0  0
   -1.5375   -0.0542    0.0000 O   0  0  0  0  0  0  0  0  0  0  0  0
  2  1  2  0
  3  1  2  0
M  CHG  2   1   1   2  -1
M  END
> <chembl_id>
CHEMBL1234579

> <chembl_pref_name>
NITROUS OXIDE

$$$$

     RDKit          2D

 19 18  0  0  0  0  0  0  0  0999 V2000
    7.7042   -5.3042    0.0000 Na  0  0  0  0  0 15  0  0  0  0  0  0
    2.9292   -6.2000    0.0000 N   0  0  0  0  0  0  0  0  0  0  0  0
    3.5500   -5.8417    0.0000 C   0  0  0  0  0  0  0  0  0  0  0  0
    2.3125   -5.1292    0.0000 N   0  0  0  0  0  0  0  0  0  0  0  0
    2.3125   -5.8417    0.0000 C   0  0  0  0  0  0  0  0  0  0  0  0
    3.5500   -5.1292    0.0000 C   0  0  0  0  0  0  0  0  0  0  0  0
    2.9292   -4.7792    0.0000 C   0  0  0  0  0  0  0  0  0  0  0  0
    4.2292   -6.0542    0.0000 N   0  0  0  0  0  0  0  0  0  0  0  0
    4.2292   -4.9167    0.0000 N   0  0  0  0  0  0  0  0  0  0  0  0
    4.6292   -5.4917    0.0000 C   0  0  0  0  0  0  0  0  0  0  0  0
    1.7042   -6.2000    0.0000 O   0  0  0  0  0  0  0  0  0  0  0  0
    2.9292   -4.0667    0.0000 O   0  0  0  0  0  0  0  0  0  0  0  0
    2.9292   -6.9125    0.0000 C   0  0  0  0  0  0  0  0  0  0  0  0
    1.7042   -4.7792    0.0000 C   0  0  0  0  0  0  0  0  0  0  0  0
    6.4292   -5.6250    0.0000 C   0  0  0  0  0  0  0  0  0  0  0  0
    7.0417   -5.2667    0.0000 O   0  0  0  0  0  0  0  0  0  0  0  0
    6.4250   -6.3292    0.0000 O   0  0  0  0  0  0  0  0  0  0  0  0
    5.2000   -5.6292    0.0000 N   0  0  0  0  0  0  0  0  0  0  0  0
    5.8167   -5.2750    0.0000 C   0  0  0  0  0  0  0  0  0  0  0  0
  3  2  1  0
  4  5  1  0
  5  2  1  0
  6  3  2  0
  7  4  1  0
  8  3  1  0
  9  6  1  0
 10  8  2  0
 11  5  2  0
 12  7  2  0
 13  2  1  0
 14  4  1  0
  7  6  1  0
 10  9  1  0
 16 15  1  0
 17 15  2  0
 18 19  1  0
 19 15  1  0
M  CHG  2   1   1  16  -1
M  END
> <chembl_id>
CHEMBL1200578

> <chembl_pref_name>
THEOPHYLLINE SODIUM GLYCINATE

$$$$

     RDKit          2D

 18 19  0  0  1  0  0  0  0  0999 V2000
    2.7542   -6.0250    0.0000 C   0  0  0  0  0  0  0  0  0  0  0  0
    3.1542   -5.4375    0.0000 N   0  0  0  0  0  0  0  0  0  0  0  0
    3.1417   -6.5667    0.0000 N   0  0  0  0  0  0  0  0  0  0  0  0
    3.8750   -5.6417    0.0000 C   0  0  0  0  0  0  0  0  0  0  0  0
    3.8625   -6.3667    0.0000 C   0  0  0  0  0  0  0  0  0  0  0  0
    4.9250   -5.9917    0.0000 S   0  0  0  0  0  0  0  0  0  0  0  0
    4.5292   -5.3917    0.0000 C   0  0  0  0  0  0  0  0  0  0  0  0
    4.5292   -6.5667    0.0000 C   0  0  0  0  0  0  0  0  0  0  0  0
    2.1125   -6.0292    0.0000 O   0  0  0  0  0  0  0  0  0  0  0  0
    6.9542   -3.5500    0.0000 C   0  0  0  0  0  0  0  0  0  0  0  0
    6.6042   -2.9417    0.0000 O   0  0  0  0  0  0  0  0  0  0  0  0
    7.6667   -3.5292    0.0000 O   0  0  0  0  0  0  0  0  0  0  0  0
    6.5917   -4.1875    0.0000 C   0  0  0  0  0  0  0  0  0  0  0  0
    4.8292   -4.8042    0.0000 C   0  0  0  0  0  0  0  0  0  0  0  0
    5.8792   -4.1792    0.0000 C   0  0  0  0  0  0  0  0  0  0  0  0
    5.5167   -4.8125    0.0000 C   0  0  0  0  0  0  0  0  0  0  0  0
    3.8750   -4.9000    0.0000 H   0  0  0  0  0  0  0  0  0  0  0  0
    3.8542   -7.0917    0.0000 H   0  0  0  0  0  0  0  0  0  0  0  0
  2  1  1  0
  3  1  1  0
  4  2  1  0
  5  3  1  0
  6  8  1  0
  7  4  1  0
  8  5  1  0
  9  1  2  0
 10 13  1  0
 11 10  2  0
 12 10  1  0
 13 15  1  0
  7 14  1  6
 15 16  1  0
 16 14  1  0
  4 17  1  1
  5 18  1  1
  5  4  1  0
  6  7  1  0
M  END
> <chembl_id>
CHEMBL857

> <chembl_pref_name>
BIOTIN

$$$$

     RDKit          2D

  9  9  0  0  0  0  0  0  0  0999 V2000
    0.0292   -0.5750    0.0000 C   0  0  0  0  0  0  0  0  0  0  0  0
   -1.1958    0.1208    0.0000 C   0  0  0  0  0  0  0  0  0  0  0  0
    1.2750    0.1208    0.0000 C   0  0  0  0  0  0  0  0  0  0  0  0
    0.0292   -2.0167    0.0000 O   0  0  0  0  0  0  0  0  0  0  0  0
   -2.4500   -0.5750    0.0000 O   0  0  0  0  0  0  0  0  0  0  0  0
    2.5250   -0.5750    0.0000 O   0  0  0  0  0  0  0  0  0  0  0  0
    0.0292    2.2875    0.0000 C   0  0  0  0  0  0  0  0  0  0  0  0
   -1.1958    1.5625    0.0000 C   0  0  0  0  0  0  0  0  0  0  0  0
    1.2750    1.5625    0.0000 C   0  0  0  0  0  0  0  0  0  0  0  0
  2  1  2  0
  3  1  1  0
  4  1  1  0
  5  2  1  0
  6  3  1  0
  7  9  1  0
  8  2  1  0
  9  3  2  0
  8  7  2  0
M  END
> <chembl_id>
CHEMBL307145

> <chembl_pref_name>
PYROGALLOL

$$$$

     RDKit          2D

 18 19  0  0  0  0  0  0  0  0999 V2000
    4.6583   -7.2667    0.0000 C   0  0  0  0  0  0  0  0  0  0  0  0
    4.6542   -6.5625    0.0000 C   0  0  0  0  0  0  0  0  0  0  0  0
    4.0417   -7.6250    0.0000 N   0  0  0  0  0  0  0  0  0  0  0  0
    5.3292   -7.4792    0.0000 N   0  0  0  0  0  0  0  0  0  0  0  0
    3.4292   -6.5625    0.0000 N   0  0  0  0  0  0  0  0  0  0  0  0
    5.3250   -6.3375    0.0000 N   0  0  0  0  0  0  0  0  0  0  0  0
    4.0417   -6.2042    0.0000 C   0  0  0  0  0  0  0  0  0  0  0  0
    3.4292   -7.2667    0.0000 C   0  0  0  0  0  0  0  0  0  0  0  0
    5.7417   -6.9083    0.0000 C   0  0  0  0  0  0  0  0  0  0  0  0
    5.3250   -8.1875    0.0000 C   0  0  0  0  0  0  0  0  0  0  0  0
    4.0417   -5.5000    0.0000 O   0  0  0  0  0  0  0  0  0  0  0  0
    2.8167   -7.6208    0.0000 N   0  0  0  0  0  0  0  0  0  0  0  0
    5.9333   -8.5458    0.0000 O   0  0  0  0  0  0  0  0  0  0  0  0
    5.9250   -9.2542    0.0000 C   0  0  0  0  0  0  0  0  0  0  0  0
    7.1500   -9.2708    0.0000 O   0  0  0  0  0  0  0  0  0  0  0  0
    4.6958   -9.2417    0.0000 O   0  0  0  0  0  0  0  0  0  0  0  0
    5.3083   -9.6000    0.0000 C   0  0  0  0  0  0  0  0  0  0  0  0
    6.5333   -9.6167    0.0000 C   0  0  0  0  0  0  0  0  0  0  0  0
  2  1  2  0
  3  1  1  0
  4  1  1  0
  5  8  1  0
  6  2  1  0
  7  2  1  0
  8  3  2  0
  9  4  1  0
 10  4  1  0
 11  7  2  0
 12  8  1  0
 13 10  1  0
 14 13  1  0
 15 18  1  0
 16 17  1  0
 17 14  1  0
 18 14  1  0
  6  9  2  0
  7  5  1  0
M  END
> <chembl_id>
CHEMBL182

> <chembl_pref_name>
GANCICLOVIR

$$$$

     RDKit          2D

 20 22  0  0  0  0  0  0  0  0999 V2000
    6.7375   -5.7542    0.0000 N   0  0  0  0  0  0  0  0  0  0  0  0
    6.7542   -4.3292    0.0000 S   0  0  0  0  0  0  0  0  0  0  0  0
    7.3542   -5.4042    0.0000 C   0  0  0  0  0  0  0  0  0  0  0  0
    6.1292   -5.3917    0.0000 C   0  0  0  0  0  0  0  0  0  0  0  0
    6.7250   -6.4667    0.0000 C   0  0  0  0  0  0  0  0  0  0  0  0
    7.3667   -4.6917    0.0000 C   0  0  0  0  0  0  0  0  0  0  0  0
    6.1417   -4.6875    0.0000 C   0  0  0  0  0  0  0  0  0  0  0  0
    6.1125   -6.8042    0.0000 C   0  0  0  0  0  0  0  0  0  0  0  0
    6.1042   -7.5167    0.0000 N   0  0  0  0  0  0  0  0  0  0  0  0
    5.5167   -5.7375    0.0000 C   0  0  0  0  0  0  0  0  0  0  0  0
    7.9667   -5.7667    0.0000 C   0  0  0  0  0  0  0  0  0  0  0  0
    5.5250   -4.3208    0.0000 C   0  0  0  0  0  0  0  0  0  0  0  0
    7.9750   -4.3417    0.0000 C   0  0  0  0  0  0  0  0  0  0  0  0
    5.4917   -7.8625    0.0000 C   0  0  0  0  0  0  0  0  0  0  0  0
    6.7167   -7.8792    0.0000 C   0  0  0  0  0  0  0  0  0  0  0  0
    5.5125   -6.4500    0.0000 C   0  0  0  0  0  0  0  0  0  0  0  0
    8.5875   -5.4167    0.0000 C   0  0  0  0  0  0  0  0  0  0  0  0
    4.9042   -5.3750    0.0000 C   0  0  0  0  0  0  0  0  0  0  0  0
    8.5917   -4.7000    0.0000 C   0  0  0  0  0  0  0  0  0  0  0  0
    4.9042   -4.6750    0.0000 C   0  0  0  0  0  0  0  0  0  0  0  0
  2  7  1  0
  3  1  1  0
  4  1  1  0
  5  1  1  0
  6  3  2  0
  7  4  1  0
  8  5  1  0
  9  8  1  0
 10  4  2  0
 11  3  1  0
 12  7  2  0
 13  6  1  0
 14  9  1  0
 15  9  1  0
 16  8  1  0
 17 11  2  0
 18 10  1  0
 19 17  1  0
 20 18  2  0
  2  6  1  0
 20 12  1  0
 19 13  2  0
M  END
> <chembl_id>
CHEMBL643

> <chembl_pref_name>
PROMETHAZINE

$$$$

     RDKit          2D

  5  4  0  0  0  0  0  0  0  0999 V2000
    4.7667   -5.0000    0.0000 C   0  0  0  0  0  0  0  0  0  0  0  0
    4.7667   -4.2917    0.0000 O   0  0  0  0  0  0  0  0  0  0  0  0
    5.3792   -5.3542    0.0000 N   0  0  0  0  0  0  0  0  0  0  0  0
    4.1500   -5.3542    0.0000 N   0  0  0  0  0  0  0  0  0  0  0  0
    6.0000   -5.0000    0.0000 O   0  0  0  0  0  0  0  0  0  0  0  0
  2  1  2  0
  3  1  1  0
  4  1  1  0
  5  3  1  0
M  END
> <chembl_id>
CHEMBL467

> <chembl_pref_name>
HYDROXYUREA

$$$$

     RDKit          2D

  5  4  0  0  0  0  0  0  0  0999 V2000
    4.7750   -4.6667    0.0000 C   0  0  0  0  0  0  0  0  0  0  0  0
    4.7875   -5.3875    0.0000 O   0  0  0  0  0  0  0  0  0  0  0  0
    5.3792   -4.3125    0.0000 N   0  0  0  0  0  0  0  0  0  0  0  0
    6.0000   -4.6667    0.0000 O   0  0  0  0  0  0  0  0  0  0  0  0
    4.1542   -4.3292    0.0000 C   0  0  0  0  0  0  0  0  0  0  0  0
  2  1  2  0
  3  1  1  0
  4  3  1  0
  5  1  1  0
M  END
> <chembl_id>
CHEMBL734

> <chembl_pref_name>
ACETOHYDROXAMIC ACID

$$$$

     RDKit          2D

 24 27  0  0  1  0  0  0  0  0999 V2000
    9.7991   -5.0691    0.0000 C   0  0  0  0  0  0  0  0  0  0  0  0
    9.8019   -5.8922    0.0000 C   0  0  0  0  0  0  0  0  0  0  0  0
    9.0799   -6.3063    0.0000 C   0  0  0  0  0  0  0  0  0  0  0  0
    8.3675   -5.8846    0.0000 C   0  0  0  0  0  0  0  0  0  0  0  0
    7.6580   -6.3069    0.0000 C   0  0  0  0  0  0  0  0  0  0  0  0
   10.5840   -4.8169    0.0000 C   0  0  0  0  0  0  0  0  0  0  0  0
   10.5760   -6.1515    0.0000 C   0  0  0  0  0  0  0  0  0  0  0  0
    7.6608   -7.1301    0.0000 C   0  0  0  0  0  0  0  0  0  0  0  0
   11.0685   -5.4888    0.0000 C   0  0  0  0  0  0  0  0  0  0  0  0
    9.0867   -4.6557    0.0000 C   0  0  0  0  0  0  0  0  0  0  0  0
    8.3730   -5.0614    0.0000 C   0  0  0  0  0  0  0  0  0  0  0  0
    9.0909   -7.1294    0.0000 C   0  0  0  0  0  0  0  0  0  0  0  0
    6.9457   -5.8978    0.0000 C   0  0  0  0  0  0  0  0  0  0  0  0
    8.3731   -7.5435    0.0000 C   0  0  0  0  0  0  0  0  0  0  0  0
    6.9513   -7.5483    0.0000 C   0  0  0  0  0  0  0  0  0  0  0  0
   11.8917   -5.4860    0.0000 F   0  0  0  0  0  0  0  0  0  0  0  0
    6.2390   -7.1391    0.0000 C   0  0  0  0  0  0  0  0  0  0  0  0
   10.8432   -4.0386    0.0000 O   0  0  0  0  0  0  0  0  0  0  0  0
    6.2362   -6.3118    0.0000 C   0  0  0  0  0  0  0  0  0  0  0  0
    9.7963   -4.2459    0.0000 C   0  0  0  0  0  0  0  0  0  0  0  0
    5.5253   -7.5532    0.0000 O   0  0  0  0  0  0  0  0  0  0  0  0
    8.3667   -6.7167    0.0000 H   0  0  0  0  0  0  0  0  0  0  0  0
    9.0792   -5.4792    0.0000 H   0  0  0  0  0  0  0  0  0  0  0  0
    9.7917   -6.7208    0.0000 H   0  0  0  0  0  0  0  0  0  0  0  0
  2  1  1  0
  3  2  1  0
  4 11  1  0
  5  4  1  0
  6  1  1  0
  7  2  1  0
  8  5  2  0
  9  6  1  0
 10  1  1  0
 11 10  1  0
 12  3  1  0
 13  5  1  0
 14 12  1  0
 15  8  1  0
  9 16  1  6
 17 19  1  0
  6 18  1  1
 19 13  2  0
  1 20  1  1
 21 17  1  0
  9  7  1  0
  4  3  1  0
 14  8  1  0
 17 15  2  0
  4 22  1  6
  3 23  1  1
  2 24  1  6
M  END
> <chembl_id>
CHEMBL1627367

> <chembl_pref_name>
FLUOROESTRADIOL

$$$$

     RDKit          2D

  4  2  0  0  0  0  0  0  0  0999 V2000
    0.3000   -1.0125    0.0000 Na  0  0  0  0  0 15  0  0  0  0  0  0
   -0.7958    0.3958    0.0000 N   0  0  0  0  0  0  0  0  0  0  0  0
   -0.7958   -1.0375    0.0000 O   0  0  0  0  0  0  0  0  0  0  0  0
    0.4292    1.1375    0.0000 O   0  0  0  0  0  0  0  0  0  0  0  0
  3  2  1  0
  4  2  2  0
M  CHG  2   1   1   3  -1
M  END
> <chembl_id>
CHEMBL93268

> <chembl_pref_name>
SODIUM NITRITE

$$$$

     RDKit          2D

 10  9  0  0  1  0  0  0  0  0999 V2000
  -12.3569    1.0962    0.0000 N   0  0  0  0  0  0  0  0  0  0  0  0
  -11.6424    1.5087    0.0000 C   0  0  0  0  0  0  0  0  0  0  0  0
  -10.9280    1.0962    0.0000 C   0  0  0  0  0  0  0  0  0  0  0  0
  -10.2135    1.5087    0.0000 O   0  0  0  0  0  0  0  0  0  0  0  0
  -10.9280    0.2712    0.0000 O   0  0  0  0  0  0  0  0  0  0  0  0
  -11.6424    2.3337    0.0000 C   0  0  0  0  0  0  0  0  0  0  0  0
  -10.9280    2.7462    0.0000 C   0  0  0  0  0  0  0  0  0  0  0  0
  -10.9280    3.5712    0.0000 C   0  0  0  0  0  0  0  0  0  0  0  0
  -10.2135    3.9837    0.0000 C   0  0  0  0  0  0  0  0  0  0  0  0
  -10.2135    4.8087    0.0000 N   0  0  0  0  0  0  0  0  0  0  0  0
  2  1  1  1
  2  3  1  0
  3  4  1  0
  3  5  2  0
  2  6  1  0
  6  7  1  0
  7  8  1  0
  8  9  1  0
  9 10  1  0
M  END
> <chembl_id>
CHEMBL8085

> <chembl_pref_name>
LYSINE

$$$$

     RDKit          2D

 12 12  0  0  0  0  0  0  0  0999 V2000
    5.8958  -18.3792    0.0000 N   0  0  0  0  0  0  0  0  0  0  0  0
    5.2792  -18.0250    0.0000 C   0  0  0  0  0  0  0  0  0  0  0  0
    4.6667  -18.3792    0.0000 C   0  0  0  0  0  0  0  0  0  0  0  0
    4.0542  -18.0250    0.0000 C   0  0  0  0  0  0  0  0  0  0  0  0
    3.4417  -18.3792    0.0000 O   0  0  0  0  0  0  0  0  0  0  0  0
    6.5083  -18.0208    0.0000 C   0  0  0  0  0  0  0  0  0  0  0  0
    6.2417  -18.9917    0.0000 C   0  0  0  0  0  0  0  0  0  0  0  0
    5.5375  -18.9917    0.0000 C   0  0  0  0  0  0  0  0  0  0  0  0
    5.2792  -17.3125    0.0000 C   0  0  0  0  0  0  0  0  0  0  0  0
    4.6667  -16.9583    0.0000 C   0  0  0  0  0  0  0  0  0  0  0  0
    4.0542  -17.3125    0.0000 C   0  0  0  0  0  0  0  0  0  0  0  0
    7.1208  -18.3750    0.0000 C   0  0  0  0  0  0  0  0  0  0  0  0
  2  1  1  0
  3  2  2  0
  4  3  1  0
  5  4  1  0
  6  1  1  0
  7  1  1  0
  8  1  1  0
  9  2  1  0
 10  9  2  0
 11 10  1  0
 12  6  1  0
  4 11  2  0
M  CHG  1   1   1
M  END
> <chembl_id>
CHEMBL1104

> <chembl_pref_name>
EDROPHONIUM

$$$$

     RDKit          2D

 20 23  0  0  0  0  0  0  0  0999 V2000
    7.8187    5.6179    0.0000 C   0  0  0  0  0  0  0  0  0  0  0  0
    7.1042    6.0304    0.0000 C   0  0  0  0  0  0  0  0  0  0  0  0
    6.3897    5.6178    0.0000 C   0  0  0  0  0  0  0  0  0  0  0  0
    6.3897    4.7928    0.0000 C   0  0  0  0  0  0  0  0  0  0  0  0
    7.1042    4.3804    0.0000 C   0  0  0  0  0  0  0  0  0  0  0  0
    7.8186    4.7929    0.0000 C   0  0  0  0  0  0  0  0  0  0  0  0
    8.6032    4.5379    0.0000 N   0  0  0  0  0  0  0  0  0  0  0  0
    9.0882    5.2053    0.0000 C   0  0  0  0  0  0  0  0  0  0  0  0
    8.6033    5.8728    0.0000 C   0  0  0  0  0  0  0  0  0  0  0  0
    8.9388    6.6265    0.0000 C   0  0  0  0  0  0  0  0  0  0  0  0
    9.7593    6.7127    0.0000 N   0  0  0  0  0  0  0  0  0  0  0  0
   10.2442    6.0453    0.0000 C   0  0  0  0  0  0  0  0  0  0  0  0
    9.9086    5.2916    0.0000 C   0  0  0  0  0  0  0  0  0  0  0  0
    5.6752    4.3803    0.0000 C   0  0  0  0  0  0  0  0  0  0  0  0
    4.9607    4.7929    0.0000 C   0  0  0  0  0  0  0  0  0  0  0  0
    4.2463    4.3804    0.0000 N   0  0  0  0  0  0  0  0  0  0  0  0
    4.2463    3.5553    0.0000 C   0  0  0  0  0  0  0  0  0  0  0  0
    4.9608    3.1428    0.0000 C   0  0  0  0  0  0  0  0  0  0  0  0
    5.6752    3.5553    0.0000 C   0  0  0  0  0  0  0  0  0  0  0  0
    3.5318    3.1428    0.0000 F   0  0  0  0  0  0  0  0  0  0  0  0
  1  2  1  0
  2  3  2  0
  3  4  1  0
  4  5  2  0
  5  6  1  0
  6  7  1  0
  1  6  2  0
  1  9  1  0
  7  8  1  0
 13  8  1  0
  8  9  2  0
  9 10  1  0
 10 11  2  0
 11 12  1  0
 12 13  2  0
  4 14  1  0
 14 15  1  0
 14 19  2  0
 15 16  2  0
 16 17  1  0
 17 18  2  0
 18 19  1  0
 17 20  1  0
M  END
> <chembl_id>
CHEMBL3546271

> <chembl_pref_name>
FLORTAUCIPIR

$$$$

     RDKit          2D

 18 20  0  0  1  0  0  0  0  0999 V2000
   -0.6000   -0.2542    0.0000 C   0  0  0  0  0  0  0  0  0  0  0  0
   -0.9375   -1.3000    0.0000 C   0  0  0  0  0  0  0  0  0  0  0  0
    0.5042   -0.2542    0.0000 C   0  0  0  0  0  0  0  0  0  0  0  0
   -0.0583   -1.9667    0.0000 N   0  0  0  0  0  0  0  0  0  0  0  0
    0.8542   -1.3042    0.0000 C   0  0  0  0  0  0  0  0  0  0  0  0
    1.2417    0.5833    0.0000 C   0  0  0  0  0  0  0  0  0  0  0  0
    3.3167    0.9208    0.0000 C   0  0  0  0  0  0  0  0  0  0  0  0
    2.3667    0.3583    0.0000 C   0  0  0  0  0  0  0  0  0  0  0  0
   -1.3583    0.5625    0.0000 C   0  0  0  0  0  0  0  0  0  0  0  0
   -2.0375   -1.5667    0.0000 C   0  0  0  0  0  0  0  0  0  0  0  0
    1.9542   -1.5542    0.0000 C   0  0  0  0  0  0  0  0  0  0  0  0
    3.3167    2.0458    0.0000 O   0  0  0  0  0  0  0  0  0  0  0  0
    2.7167   -0.7417    0.0000 C   0  0  0  0  0  0  0  0  0  0  0  0
    4.2625    0.3583    0.0000 N   0  0  0  0  0  0  0  0  0  0  0  0
   -2.4458    0.3208    0.0000 C   0  0  0  0  0  0  0  0  0  0  0  0
   -3.4000    0.8708    0.0000 N   0  0  0  0  0  0  0  0  0  0  0  0
   -2.7750   -0.7417    0.0000 C   0  0  0  0  0  0  0  0  0  0  0  0
   -4.3458    0.3208    0.0000 C   0  0  0  0  0  0  0  0  0  0  0  0
  2  1  2  0
  3  1  1  0
  4  2  1  0
  5  3  2  0
  6  3  1  0
  7  8  1  0
  8  6  2  0
  9  1  1  0
 10  2  1  0
 11  5  1  0
 12  7  2  0
 13  8  1  0
 14  7  1  0
 15  9  1  0
 15 16  1  1
 17 15  1  0
 18 16  1  0
  5  4  1  0
 10 17  1  0
 11 13  2  0
M  END
> <chembl_id>
CHEMBL1279

> <chembl_pref_name>
FROVATRIPTAN

$$$$

     RDKit          2D

 22 24  0  0  0  0  0  0  0  0999 V2000
    4.0792   -5.7292    0.0000 C   0  0  0  0  0  0  0  0  0  0  0  0
    3.4667   -6.0917    0.0000 C   0  0  0  0  0  0  0  0  0  0  0  0
    4.0750   -5.0250    0.0000 C   0  0  0  0  0  0  0  0  0  0  0  0
    5.9125   -4.6625    0.0000 C   0  0  0  0  0  0  0  0  0  0  0  0
    6.5292   -5.0125    0.0000 C   0  0  0  0  0  0  0  0  0  0  0  0
    4.6875   -4.6667    0.0000 N   0  0  0  0  0  0  0  0  0  0  0  0
    3.4667   -6.8000    0.0000 C   0  0  0  0  0  0  0  0  0  0  0  0
    7.1417   -4.6542    0.0000 C   0  0  0  0  0  0  0  0  0  0  0  0
    5.3042   -5.0167    0.0000 C   0  0  0  0  0  0  0  0  0  0  0  0
    4.6917   -6.0792    0.0000 C   0  0  0  0  0  0  0  0  0  0  0  0
    4.7000   -6.7917    0.0000 C   0  0  0  0  0  0  0  0  0  0  0  0
    2.8542   -5.7375    0.0000 C   0  0  0  0  0  0  0  0  0  0  0  0
    4.0875   -7.1542    0.0000 C   0  0  0  0  0  0  0  0  0  0  0  0
    4.6792   -3.9542    0.0000 C   0  0  0  0  0  0  0  0  0  0  0  0
    2.8542   -7.1542    0.0000 C   0  0  0  0  0  0  0  0  0  0  0  0
    7.1292   -3.9500    0.0000 C   0  0  0  0  0  0  0  0  0  0  0  0
    7.7542   -5.0042    0.0000 C   0  0  0  0  0  0  0  0  0  0  0  0
    2.2417   -6.0917    0.0000 C   0  0  0  0  0  0  0  0  0  0  0  0
    2.2417   -6.8042    0.0000 C   0  0  0  0  0  0  0  0  0  0  0  0
    8.3667   -4.6500    0.0000 C   0  0  0  0  0  0  0  0  0  0  0  0
    7.7417   -3.5917    0.0000 C   0  0  0  0  0  0  0  0  0  0  0  0
    8.3625   -3.9417    0.0000 C   0  0  0  0  0  0  0  0  0  0  0  0
  2  1  1  0
  3  1  1  0
  4  9  1  0
  5  4  2  0
  6  3  1  0
  7  2  1  0
  8  5  1  0
  9  6  1  0
 10  1  2  0
 11 10  1  0
 12  2  2  0
 13 11  2  0
 14  6  1  0
 15  7  2  0
 16  8  1  0
 17  8  2  0
 18 12  1  0
 19 18  2  0
 20 17  1  0
 21 16  2  0
 22 21  1  0
 13  7  1  0
 15 19  1  0
 22 20  2  0
M  END
> <chembl_id>
CHEMBL626

> <chembl_pref_name>
NAFTIFINE

$$$$

     RDKit          2D

 21 23  0  0  0  0  0  0  0  0999 V2000
    3.4125   -4.2167    0.0000 C   0  0  0  0  0  0  0  0  0  0  0  0
    4.0542   -3.9000    0.0000 C   0  0  0  0  0  0  0  0  0  0  0  0
    2.7667   -3.9042    0.0000 C   0  0  0  0  0  0  0  0  0  0  0  0
    3.7792   -2.6500    0.0000 C   0  0  0  0  0  0  0  0  0  0  0  0
    3.0667   -2.6500    0.0000 C   0  0  0  0  0  0  0  0  0  0  0  0
    4.2167   -3.1875    0.0000 C   0  0  0  0  0  0  0  0  0  0  0  0
    2.6042   -3.2125    0.0000 C   0  0  0  0  0  0  0  0  0  0  0  0
    3.4042   -4.9292    0.0000 C   0  0  0  0  0  0  0  0  0  0  0  0
    4.6167   -6.3292    0.0000 N   0  0  0  0  0  0  0  0  0  0  0  0
    4.0125   -5.2792    0.0000 C   0  0  0  0  0  0  0  0  0  0  0  0
    2.2542   -4.3917    0.0000 C   0  0  0  0  0  0  0  0  0  0  0  0
    4.5750   -4.3667    0.0000 C   0  0  0  0  0  0  0  0  0  0  0  0
    4.0125   -5.9792    0.0000 C   0  0  0  0  0  0  0  0  0  0  0  0
    1.9292   -3.0000    0.0000 C   0  0  0  0  0  0  0  0  0  0  0  0
    4.8875   -2.9750    0.0000 C   0  0  0  0  0  0  0  0  0  0  0  0
    5.2375   -5.9667    0.0000 C   0  0  0  0  0  0  0  0  0  0  0  0
    4.6167   -7.0375    0.0000 C   0  0  0  0  0  0  0  0  0  0  0  0
    1.5750   -4.1875    0.0000 C   0  0  0  0  0  0  0  0  0  0  0  0
    5.2542   -4.1542    0.0000 C   0  0  0  0  0  0  0  0  0  0  0  0
    5.4125   -3.4542    0.0000 C   0  0  0  0  0  0  0  0  0  0  0  0
    1.4125   -3.4875    0.0000 C   0  0  0  0  0  0  0  0  0  0  0  0
  2  1  1  0
  3  1  1  0
  4  6  1  0
  5  7  1  0
  6  2  2  0
  7  3  2  0
  8  1  2  0
  9 13  1  0
 10  8  1  0
 11  3  1  0
 12  2  1  0
 13 10  1  0
 14  7  1  0
 15  6  1  0
 16  9  1  0
 17  9  1  0
 18 11  2  0
 19 12  2  0
 20 19  1  0
 21 18  1  0
  5  4  2  0
 21 14  2  0
 20 15  2  0
M  END
> <chembl_id>
CHEMBL669

> <chembl_pref_name>
CYCLOBENZAPRINE

$$$$

     RDKit          2D

  8  6  0  0  0  0  0  0  0  0999 V2000
    2.0625    3.8598    0.0000 Cl  0  0  0  0  0  0  0  0  0  0  0  0
    0.2652    3.7420    0.0000 C   0  0  0  0  0  0  0  0  0  0  0  0
    0.2652    2.9170    0.0000 N   0  0  0  0  0  0  0  0  0  0  0  0
   -0.4493    2.5045    0.0000 C   0  0  0  0  0  0  0  0  0  0  0  0
    0.9796    2.5045    0.0000 C   0  0  0  0  0  0  0  0  0  0  0  0
    1.6941    2.9170    0.0000 C   0  0  0  0  0  0  0  0  0  0  0  0
    2.4086    2.5045    0.0000 O   0  0  0  0  0  0  0  0  0  0  0  0
   -0.4493    3.3295    0.0000 C   0  0  0  0  0  0  0  0  0  0  0  0
  2  3  1  0
  3  4  1  0
  3  5  1  0
  5  6  1  0
  6  7  1  0
  3  8  1  0
M  CHG  2   1  -1   3   1
M  ISO  1   2  11
M  END
> <chembl_id>
CHEMBL2095207

> <chembl_pref_name>
CHOLINE C-11

$$$$

     RDKit          2D

 15 14  0  0  0  0  0  0  0  0999 V2000
   -0.3208   -4.2167    0.0000 Cl  0  0  0  0  0  0  0  0  0  0  0  0
   -0.6333   -3.3500    0.0000 C   0  0  0  0  0  0  0  0  0  0  0  0
   -1.2500   -3.0042    0.0000 C   0  0  0  0  0  0  0  0  0  0  0  0
    0.5917   -3.3292    0.0000 N   0  0  0  0  0  0  0  0  0  0  0  0
    1.2125   -3.6667    0.0000 C   0  0  0  0  0  0  0  0  0  0  0  0
    1.8125   -3.3042    0.0000 C   0  0  0  0  0  0  0  0  0  0  0  0
   -0.0125   -3.6917    0.0000 C   0  0  0  0  0  0  0  0  0  0  0  0
    2.4292   -3.6542    0.0000 C   0  0  0  0  0  0  0  0  0  0  0  0
    0.5917   -2.6250    0.0000 C   0  0  0  0  0  0  0  0  0  0  0  0
    1.2125   -4.3792    0.0000 C   0  0  0  0  0  0  0  0  0  0  0  0
    3.0417   -3.3042    0.0000 C   0  0  0  0  0  0  0  0  0  0  0  0
    2.4250   -4.3667    0.0000 C   0  0  0  0  0  0  0  0  0  0  0  0
    3.0542   -4.7042    0.0000 C   0  0  0  0  0  0  0  0  0  0  0  0
    3.6542   -3.6292    0.0000 C   0  0  0  0  0  0  0  0  0  0  0  0
    3.6750   -4.3417    0.0000 C   0  0  0  0  0  0  0  0  0  0  0  0
  3  2  3  0
  4  7  1  0
  5  4  1  0
  6  5  1  0
  7  2  1  0
  8  6  1  0
  9  4  1  0
  5 10  1  1
 11  8  1  0
 12  8  2  0
 13 12  1  0
 14 11  2  0
 15 14  1  0
 15 13  2  0
M  END
> <chembl_id>
CHEMBL1200904

> <chembl_pref_name>
SELEGILINE HYDROCHLORIDE

$$$$

     RDKit          2D

  1  0  0  0  0  0  0  0  0  0999 V2000
    2.1792    0.8125    0.0000 Xe  0  0  0  0  0 15  0  0  0  0  0  0
M  ISO  1   1 127
M  END
> <chembl_id>
CHEMBL1200673

> <chembl_pref_name>
XENON XE 127

$$$$

     RDKit          2D

 15 15  0  0  0  0  0  0  0  0999 V2000
    5.3792   -4.2875    0.0000 C   0  0  0  0  0  0  0  0  0  0  0  0
    5.3792   -5.0042    0.0000 N   0  0  0  0  0  0  0  0  0  0  0  0
    4.7667   -5.3542    0.0000 N   0  0  0  0  0  0  0  0  0  0  0  0
    4.7542   -3.9417    0.0000 N   0  0  0  0  0  0  0  0  0  0  0  0
    5.9917   -3.9250    0.0000 O   0  0  0  0  0  0  0  0  0  0  0  0
    4.7917   -6.0667    0.0000 O   0  0  0  0  0  0  0  0  0  0  0  0
    6.0042   -5.3542    0.0000 C   0  0  0  0  0  0  0  0  0  0  0  0
    4.1500   -4.2917    0.0000 C   0  0  0  0  0  0  0  0  0  0  0  0
    7.2292   -5.3375    0.0000 Cl  0  0  0  0  0  0  0  0  0  0  0  0
    6.6042   -4.9792    0.0000 C   0  0  0  0  0  0  0  0  0  0  0  0
    4.1417   -5.0042    0.0000 C   0  0  0  0  0  0  0  0  0  0  0  0
    3.5292   -3.9500    0.0000 C   0  0  0  0  0  0  0  0  0  0  0  0
    2.9125   -4.2792    0.0000 C   0  0  0  0  0  0  0  0  0  0  0  0
    3.5167   -5.3417    0.0000 C   0  0  0  0  0  0  0  0  0  0  0  0
    2.9125   -5.0042    0.0000 C   0  0  0  0  0  0  0  0  0  0  0  0
  2  1  1  0
  3  2  1  0
  4  1  1  0
  5  1  2  0
  6  3  2  0
  7  2  1  0
  8  4  1  0
  9 10  1  0
 10  7  1  0
 11  8  1  0
 12  8  1  0
 13 12  1  0
 14 11  1  0
 15 13  1  0
 15 14  1  0
M  END
> <chembl_id>
CHEMBL514

> <chembl_pref_name>
LOMUSTINE

$$$$

     RDKit          2D

  7  6  0  0  0  0  0  0  0  0999 V2000
    0.2875   -0.3792    0.0000 C   0  0  0  0  0  0  0  0  0  0  0  0
   -0.9208   -1.0792    0.0000 N   0  0  0  0  0  0  0  0  0  0  0  0
    0.2875    0.9833    0.0000 S   0  0  0  0  0  0  0  0  0  0  0  0
    1.4750   -1.0375    0.0000 N   0  0  0  0  0  0  0  0  0  0  0  0
   -2.3625   -0.1667    0.0000 C   0  0  0  0  0  0  0  0  0  0  0  0
   -2.3958    1.2125    0.0000 O   0  0  0  0  0  0  0  0  0  0  0  0
    2.6625   -0.3542    0.0000 C   0  0  0  0  0  0  0  0  0  0  0  0
  2  1  1  0
  3  1  2  0
  4  1  1  0
  5  2  1  0
  6  5  1  0
  7  4  1  0
M  END
> <chembl_id>
CHEMBL2106441

> <chembl_pref_name>
NOXYTIOLIN

$$$$

     RDKit          2D

  5  4  0  0  0  0  0  0  0  0999 V2000
   11.1624   -7.9502    0.0000 S   0  0  0  0  0  0  0  0  0  0  0  0
   11.5690   -7.2290    0.0000 S   0  0  0  0  0  0  0  0  0  0  0  0
   11.8740   -8.3617    0.0000 O   0  0  0  0  0  0  0  0  0  0  0  0
   10.4508   -8.3617    0.0000 O   0  0  0  0  0  0  0  0  0  0  0  0
   10.7412   -7.2290    0.0000 O   0  0  0  0  0  0  0  0  0  0  0  0
  2  1  2  0
  3  1  1  0
  4  1  1  0
  5  1  2  0
M  END
> <chembl_id>
CHEMBL1208642

> <chembl_pref_name>
THIOSULFURIC ACID

$$$$

     RDKit          2D

 14 14  0  0  0  0  0  0  0  0999 V2000
   -5.4214  -22.1866    0.0000 Cl  0  0  0  0  0  0  0  0  0  0  0  0
   -7.4250  -21.0591    0.0000 C   0  0  0  0  0  0  0  0  0  0  0  0
   -8.1683  -21.4171    0.0000 C   0  0  0  0  0  0  0  0  0  0  0  0
   -8.3519  -22.2213    0.0000 C   0  0  0  0  0  0  0  0  0  0  0  0
   -7.8375  -22.8664    0.0000 C   0  0  0  0  0  0  0  0  0  0  0  0
   -7.0125  -22.8664    0.0000 C   0  0  0  0  0  0  0  0  0  0  0  0
   -6.4981  -22.2213    0.0000 N   0  0  0  0  0  0  0  0  0  0  0  0
   -6.6817  -21.4171    0.0000 C   0  0  0  0  0  0  0  0  0  0  0  0
   -8.7731  -20.8559    0.0000 C   0  0  0  0  0  0  0  0  0  0  0  0
   -9.5614  -21.0991    0.0000 C   0  0  0  0  0  0  0  0  0  0  0  0
   -9.7450  -21.9034    0.0000 C   0  0  0  0  0  0  0  0  0  0  0  0
   -9.1402  -22.4646    0.0000 C   0  0  0  0  0  0  0  0  0  0  0  0
   -8.1955  -23.6097    0.0000 C   0  0  0  0  0  0  0  0  0  0  0  0
  -10.5333  -22.1466    0.0000 Cl  0  0  0  0  0  0  0  0  0  0  0  0
  2  3  1  0
  8  2  1  0
  4  5  1  0
  5  6  1  0
  6  7  1  0
  7  8  1  0
  3  9  2  0
  4  3  1  0
 12  4  2  0
  9 10  1  0
 10 11  2  0
 11 12  1  0
  5 13  1  6
 11 14  1  0
M  END
> <chembl_id>
CHEMBL2095211

> <chembl_pref_name>
LORCASERIN HYDROCHLORIDE

$$$$

     RDKit          2D

 18 17  0  0  0  0  0  0  0  0999 V2000
    3.4501   -5.0562    0.0000 Na  0  0  0  0  0 15  0  0  0  0  0  0
    1.0627   -5.0126    0.0000 N   0  0  0  0  0  0  0  0  0  0  0  0
    0.3494   -5.4153    0.0000 C   0  0  0  0  0  0  0  0  0  0  0  0
    1.0578   -6.6575    0.0000 C   0  0  0  0  0  0  0  0  0  0  0  0
    0.3494   -6.2450    0.0000 C   0  0  0  0  0  0  0  0  0  0  0  0
    1.7809   -6.2499    0.0000 N   0  0  0  0  0  0  0  0  0  0  0  0
    1.7760   -5.4249    0.0000 C   0  0  0  0  0  0  0  0  0  0  0  0
    2.5038   -5.0077    0.0000 S   0  0  0  0  0  0  0  0  0  0  0  0
   -0.3639   -4.9980    0.0000 O   0  0  0  0  0  0  0  0  0  0  0  0
    1.0676   -7.4775    0.0000 O   0  0  0  0  0  0  0  0  0  0  0  0
   -0.0679   -6.9583    0.0000 C   0  0  0  0  0  0  0  0  0  0  0  0
   -0.8831   -5.5172    0.0000 C   0  0  0  0  0  0  0  0  0  0  0  0
   -0.4755   -6.2354    0.0000 C   0  0  0  0  0  0  0  0  0  0  0  0
   -1.7081   -5.5123    0.0000 C   0  0  0  0  0  0  0  0  0  0  0  0
   -0.8977   -6.9487    0.0000 C   0  0  0  0  0  0  0  0  0  0  0  0
    0.3348   -7.6716    0.0000 C   0  0  0  0  0  0  0  0  0  0  0  0
   -1.3150   -7.6620    0.0000 C   0  0  0  0  0  0  0  0  0  0  0  0
   -2.1399   -7.6571    0.0000 C   0  0  0  0  0  0  0  0  0  0  0  0
  3  2  1  0
  4  6  1  0
  5  3  1  0
  6  7  1  0
  7  2  1  0
  8  7  2  0
  9  3  2  0
 10  4  2  0
 11  5  1  0
 12 13  1  0
 13  5  1  0
 14 12  2  0
 15 11  1  0
 16 11  1  0
 17 15  1  0
 18 17  1  0
  5  4  1  0
M  CHG  2   1   1   2  -1
M  END
> <chembl_id>
CHEMBL1201065

> <chembl_pref_name>
THIAMYLAL SODIUM

$$$$

     RDKit          2D

 13 10  0  0  0  0  0  0  0  0999 V2000
    5.5687   -0.1069    0.0000 C   0  0  0  0  0  0  0  0  0  0  0  0
    5.9812   -0.8213    0.0000 C   0  0  0  0  0  0  0  0  0  0  0  0
    6.8062   -0.8213    0.0000 O   0  0  0  0  0  0  0  0  0  0  0  0
    5.5687   -1.5358    0.0000 C   0  0  0  0  0  0  0  0  0  0  0  0
    5.9812   -2.2503    0.0000 O   0  0  0  0  0  0  0  0  0  0  0  0
    4.7437   -1.5358    0.0000 O   0  0  0  0  0  0  0  0  0  0  0  0
   -0.2063    1.0717    0.0000 C   0  0  0  0  0  0  0  0  0  0  0  0
    0.2062    0.3572    0.0000 C   0  0  0  0  0  0  0  0  0  0  0  0
    1.0312    0.3572    0.0000 O   0  0  0  0  0  0  0  0  0  0  0  0
   -0.2062   -0.3572    0.0000 C   0  0  0  0  0  0  0  0  0  0  0  0
    0.2063   -1.0717    0.0000 O   0  0  0  0  0  0  0  0  0  0  0  0
   -1.0312   -0.3572    0.0000 O   0  0  0  0  0  0  0  0  0  0  0  0
    3.3884    0.0000    0.0000 Mg  0  0  0  0  0 15  0  0  0  0  0  0
  1  2  1  0
  2  3  1  0
  2  4  1  0
  4  5  1  0
  4  6  2  0
  7  8  1  0
  8  9  1  0
  8 10  1  0
 10 11  1  0
 10 12  2  0
M  CHG  3   5  -1  11  -1  13   2
M  END
> <chembl_id>
CHEMBL3707281

> <chembl_pref_name>
MAGNESIUM LACTATE

$$$$

     RDKit          2D

 20 21  0  0  0  0  0  0  0  0999 V2000
    6.7292   -4.3417    0.0000 C   0  0  0  0  0  0  0  0  0  0  0  0
    6.1292   -4.6917    0.0000 C   0  0  0  0  0  0  0  0  0  0  0  0
    5.5167   -4.3292    0.0000 N   0  0  0  0  0  0  0  0  0  0  0  0
    7.3417   -4.6917    0.0000 C   0  0  0  0  0  0  0  0  0  0  0  0
    6.4000   -3.7167    0.0000 O   0  0  0  0  0  0  0  0  0  0  0  0
    6.7625   -1.8917    0.0000 N   0  0  0  0  0  0  0  0  0  0  0  0
    6.7542   -3.1292    0.0000 C   0  0  0  0  0  0  0  0  0  0  0  0
    7.1167   -3.7500    0.0000 C   0  0  0  0  0  0  0  0  0  0  0  0
    4.9042   -4.7000    0.0000 C   0  0  0  0  0  0  0  0  0  0  0  0
    6.4125   -2.4917    0.0000 C   0  0  0  0  0  0  0  0  0  0  0  0
    6.1417   -5.4125    0.0000 C   0  0  0  0  0  0  0  0  0  0  0  0
    7.9542   -4.3625    0.0000 C   0  0  0  0  0  0  0  0  0  0  0  0
    7.3417   -5.4042    0.0000 C   0  0  0  0  0  0  0  0  0  0  0  0
    6.4042   -1.2667    0.0000 C   0  0  0  0  0  0  0  0  0  0  0  0
    7.4667   -1.8917    0.0000 C   0  0  0  0  0  0  0  0  0  0  0  0
    4.9000   -5.4125    0.0000 C   0  0  0  0  0  0  0  0  0  0  0  0
    8.5792   -4.7042    0.0000 C   0  0  0  0  0  0  0  0  0  0  0  0
    7.9542   -5.7750    0.0000 C   0  0  0  0  0  0  0  0  0  0  0  0
    5.5250   -5.7750    0.0000 C   0  0  0  0  0  0  0  0  0  0  0  0
    8.5667   -5.4250    0.0000 C   0  0  0  0  0  0  0  0  0  0  0  0
  2  1  1  0
  3  2  2  0
  4  1  1  0
  5  1  1  0
  6 10  1  0
  7  5  1  0
  8  1  1  0
  9  3  1  0
 10  7  1  0
 11  2  1  0
 12  4  2  0
 13  4  1  0
 14  6  1  0
 15  6  1  0
 16  9  2  0
 17 12  1  0
 18 13  2  0
 19 11  2  0
 20 18  1  0
 19 16  1  0
 20 17  2  0
M  END
> <chembl_id>
CHEMBL1004

> <chembl_pref_name>
DOXYLAMINE

$$$$

     RDKit          2D

 17 18  0  0  0  0  0  0  0  0999 V2000
   -1.2458    0.5125    0.0000 C   0  0  0  0  0  0  0  0  0  0  0  0
   -2.3458    1.1500    0.0000 N   0  0  0  0  0  0  0  0  0  0  0  0
   -0.1458    1.1375    0.0000 C   0  0  0  0  0  0  0  0  0  0  0  0
    0.9542   -0.7625    0.0000 C   0  0  0  0  0  0  0  0  0  0  0  0
    3.1500   -0.7792    0.0000 C   0  0  0  0  0  0  0  0  0  0  0  0
    0.9542    0.4958    0.0000 C   0  0  0  0  0  0  0  0  0  0  0  0
    2.0417   -1.4000    0.0000 C   0  0  0  0  0  0  0  0  0  0  0  0
   -1.2500   -0.7542    0.0000 C   0  0  0  0  0  0  0  0  0  0  0  0
   -0.1458   -1.4000    0.0000 C   0  0  0  0  0  0  0  0  0  0  0  0
    3.1417    0.4875    0.0000 O   0  0  0  0  0  0  0  0  0  0  0  0
   -3.7083    2.6833    0.0000 C   0  0  0  0  0  0  0  0  0  0  0  0
   -4.3458    1.5875    0.0000 C   0  0  0  0  0  0  0  0  0  0  0  0
   -0.1458    2.4333    0.0000 Cl  0  0  0  0  0  0  0  0  0  0  0  0
    4.2500   -1.4250    0.0000 O   0  0  0  0  0  0  0  0  0  0  0  0
   -2.4708    2.4125    0.0000 C   0  0  0  0  0  0  0  0  0  0  0  0
   -3.5000    0.6458    0.0000 C   0  0  0  0  0  0  0  0  0  0  0  0
    2.0417   -2.6792    0.0000 C   0  0  0  0  0  0  0  0  0  0  0  0
  2  1  1  0
  3  1  1  0
  4  9  2  0
  5  7  1  0
  6  3  2  0
  7  4  1  0
  8  1  2  0
  9  8  1  0
 10  5  2  0
 11 15  1  0
 12 16  1  0
 13  3  1  0
 14  5  1  0
 15  2  1  0
 16  2  1  0
 17  7  1  0
  6  4  1  0
 11 12  2  0
M  END
> <chembl_id>
CHEMBL188952

> <chembl_pref_name>
PIRPROFEN

$$$$

     RDKit          2D

 21 24  0  0  1  0  0  0  0  0999 V2000
    2.8167   -1.9750    0.0000 C   0  0  0  0  0  0  0  0  0  0  0  0
    1.5833   -1.2750    0.0000 C   0  0  0  0  0  0  0  0  0  0  0  0
    2.1917   -0.9250    0.0000 C   0  0  0  0  0  0  0  0  0  0  0  0
    2.8167   -1.2750    0.0000 C   0  0  0  0  0  0  0  0  0  0  0  0
    1.5833   -1.9750    0.0000 C   0  0  0  0  0  0  0  0  0  0  0  0
    2.1917   -2.3250    0.0000 C   0  0  0  0  0  0  0  0  0  0  0  0
    3.4333   -2.3250    0.0000 N   0  0  0  0  0  0  0  0  0  0  0  0
    0.9625   -0.9083    0.0000 C   0  0  0  0  0  0  0  0  0  0  0  0
    3.4333   -0.9250    0.0000 C   0  0  0  0  0  0  0  0  0  0  0  0
    0.3542   -1.2583    0.0000 C   0  0  0  0  0  0  0  0  0  0  0  0
    0.9625   -2.3250    0.0000 C   0  0  0  0  0  0  0  0  0  0  0  0
    4.0542   -1.9750    0.0000 C   0  0  0  0  0  0  0  0  0  0  0  0
    4.0542   -1.2750    0.0000 C   0  0  0  0  0  0  0  0  0  0  0  0
    0.3542   -1.9750    0.0000 C   0  0  0  0  0  0  0  0  0  0  0  0
    0.9625   -0.2000    0.0000 O   0  0  0  0  0  0  0  0  0  0  0  0
    2.1917   -0.2167    0.0000 C   0  0  0  0  0  0  0  0  0  0  0  0
   -0.2583   -0.9083    0.0000 O   0  0  0  0  0  0  0  0  0  0  0  0
    3.4333   -3.0167    0.0000 C   0  0  0  0  0  0  0  0  0  0  0  0
    2.8167    0.1333    0.0000 C   0  0  0  0  0  0  0  0  0  0  0  0
    3.4333   -0.2167    0.0000 C   0  0  0  0  0  0  0  0  0  0  0  0
    2.8250   -2.7583    0.0000 H   0  0  0  0  0  0  0  0  0  0  0  0
  2  5  2  0
  3  4  2  0
  4  1  1  0
  5  6  1  0
  6  1  1  0
  7  1  1  0
  8  2  1  0
  9  4  1  0
 10 14  1  0
 11  5  1  0
 12  7  1  0
 13 12  1  0
 14 11  2  0
 15  8  1  0
 16  3  1  0
 17 10  1  0
 18  7  1  0
 19 20  1  0
 20  9  2  0
  1 21  1  1
  2  3  1  0
 13  9  1  0
 19 16  2  0
 10  8  2  0
M  END
> <chembl_id>
CHEMBL53

> <chembl_pref_name>
APOMORPHINE

$$$$

     RDKit          2D

 18 18  0  0  0  0  0  0  0  0999 V2000
    7.1042   -5.9375    0.0000 Cl  0  0  0  0  0  0  0  0  0  0  0  0
    5.6542   -4.6250    0.0000 N   0  0  0  0  0  0  0  0  0  0  0  0
    3.2292   -4.6250    0.0000 O   0  0  0  0  0  0  0  0  0  0  0  0
    2.6042   -4.9792    0.0000 C   0  0  0  0  0  0  0  0  0  0  0  0
    4.4292   -3.9167    0.0000 O   0  0  0  0  0  0  0  0  0  0  0  0
    4.4292   -4.6250    0.0000 C   0  0  0  0  0  0  0  0  0  0  0  0
    2.6042   -5.6792    0.0000 C   0  0  0  0  0  0  0  0  0  0  0  0
    3.8375   -4.9792    0.0000 C   0  0  0  0  0  0  0  0  0  0  0  0
    3.2292   -6.0500    0.0000 O   0  0  0  0  0  0  0  0  0  0  0  0
    5.0542   -4.9792    0.0000 C   0  0  0  0  0  0  0  0  0  0  0  0
    5.6542   -3.9167    0.0000 C   0  0  0  0  0  0  0  0  0  0  0  0
    5.0542   -3.5500    0.0000 C   0  0  0  0  0  0  0  0  0  0  0  0
    1.9750   -4.6250    0.0000 C   0  0  0  0  0  0  0  0  0  0  0  0
    1.9750   -6.0292    0.0000 C   0  0  0  0  0  0  0  0  0  0  0  0
    3.8375   -5.6917    0.0000 C   0  0  0  0  0  0  0  0  0  0  0  0
    4.4667   -6.0500    0.0000 C   0  0  0  0  0  0  0  0  0  0  0  0
    1.3667   -4.9792    0.0000 C   0  0  0  0  0  0  0  0  0  0  0  0
    1.3667   -5.6792    0.0000 C   0  0  0  0  0  0  0  0  0  0  0  0
  3  8  1  0
  4  3  1  0
  5 12  1  0
  6 10  1  0
  7  4  2  0
  8  6  1  0
  9  7  1  0
 10  2  1  0
 11  2  1  0
 12 11  1  0
 13  4  1  0
 14  7  1  0
 15  9  1  0
 16 15  1  0
 17 13  2  0
 18 17  1  0
  6  5  1  0
 14 18  2  0
M  END
> <chembl_id>
CHEMBL2106483

> <chembl_pref_name>
VILOXAZINE HYDROCHLORIDE

$$$$

     RDKit          2D

 14 13  0  0  1  0  0  0  0  0999 V2000
    0.5042   -5.5875    0.0000 C   0  0  0  0  0  0  0  0  0  0  0  0
   -0.7208   -5.5667    0.0000 C   0  0  0  0  0  0  0  0  0  0  0  0
   -0.1000   -5.2250    0.0000 C   0  0  0  0  0  0  0  0  0  0  0  0
    0.4917   -6.3000    0.0000 O   0  0  0  0  0  0  0  0  0  0  0  0
    1.1167   -5.2500    0.0000 N   0  0  0  0  0  0  0  0  0  0  0  0
   -0.0875   -4.5083    0.0000 O   0  0  0  0  0  0  0  0  0  0  0  0
   -1.3292   -5.2042    0.0000 C   0  0  0  0  0  0  0  0  0  0  0  0
    2.3542   -5.2875    0.0000 C   0  0  0  0  0  0  0  0  0  0  0  0
   -0.3708   -6.1792    0.0000 C   0  0  0  0  0  0  0  0  0  0  0  0
   -1.0833   -6.1792    0.0000 C   0  0  0  0  0  0  0  0  0  0  0  0
   -1.9458   -5.5500    0.0000 O   0  0  0  0  0  0  0  0  0  0  0  0
    3.6000   -5.3042    0.0000 O   0  0  0  0  0  0  0  0  0  0  0  0
    1.7375   -5.6125    0.0000 C   0  0  0  0  0  0  0  0  0  0  0  0
    2.9750   -5.6375    0.0000 C   0  0  0  0  0  0  0  0  0  0  0  0
  2  3  1  0
  3  1  1  0
  4  1  2  0
  5  1  1  0
  3  6  1  1
  7  2  1  0
  8 13  1  0
  9  2  1  0
 10  2  1  0
 11  7  1  0
 12 14  1  0
 13  5  1  0
 14  8  1  0
M  END
> <chembl_id>
CHEMBL1200979

> <chembl_pref_name>
DEXPANTHENOL

$$$$

     RDKit          2D

 19 19  0  0  0  0  0  0  0  0999 V2000
    7.6417   -4.6250    0.0000 Cl  0  0  0  0  0  0  0  0  0  0  0  0
    6.0667   -2.4792    0.0000 N   0  0  0  0  0  0  0  0  0  0  0  0
    5.8542   -4.0958    0.0000 C   0  0  0  0  0  0  0  0  0  0  0  0
    6.0750   -3.4208    0.0000 C   0  0  0  0  0  0  0  0  0  0  0  0
    5.4583   -2.1250    0.0000 C   0  0  0  0  0  0  0  0  0  0  0  0
    5.4583   -1.4167    0.0000 N   0  0  0  0  0  0  0  0  0  0  0  0
    5.1500   -4.0958    0.0000 C   0  0  0  0  0  0  0  0  0  0  0  0
    5.5000   -3.0042    0.0000 O   0  0  0  0  0  0  0  0  0  0  0  0
    6.6792   -2.1250    0.0000 C   0  0  0  0  0  0  0  0  0  0  0  0
    4.9292   -3.4208    0.0000 C   0  0  0  0  0  0  0  0  0  0  0  0
    6.6792   -1.4167    0.0000 C   0  0  0  0  0  0  0  0  0  0  0  0
    6.0667   -1.0625    0.0000 C   0  0  0  0  0  0  0  0  0  0  0  0
    4.8417   -2.4750    0.0000 O   0  0  0  0  0  0  0  0  0  0  0  0
    6.2042   -4.7042    0.0000 F   0  0  0  0  0  0  0  0  0  0  0  0
    6.5625   -4.0917    0.0000 F   0  0  0  0  0  0  0  0  0  0  0  0
    4.7333   -4.6667    0.0000 O   0  0  0  0  0  0  0  0  0  0  0  0
    6.0667   -0.3542    0.0000 N   0  0  0  0  0  0  0  0  0  0  0  0
    4.3125   -3.0667    0.0000 C   0  0  0  0  0  0  0  0  0  0  0  0
    3.6958   -3.4167    0.0000 O   0  0  0  0  0  0  0  0  0  0  0  0
  3  4  1  0
  4  2  1  1
  5  2  1  0
  6  5  1  0
  7  3  1  0
  8  4  1  0
  9  2  1  0
 10  8  1  0
 11  9  2  0
 12 11  1  0
 13  5  2  0
 14  3  1  0
 15  3  1  0
  7 16  1  6
 17 12  1  0
 10 18  1  1
 19 18  1  0
  7 10  1  0
 12  6  2  0
M  END
> <chembl_id>
CHEMBL1637

> <chembl_pref_name>
GEMCITABINE HYDROCHLORIDE

$$$$

     RDKit          2D

 16 15  0  0  0  0  0  0  0  0999 V2000
    6.2792   -4.0250    0.0000 Cl  0  0  0  0  0  0  0  0  0  0  0  0
    4.3167   -3.8375    0.0000 N   0  0  0  0  0  0  0  0  0  0  0  0
    2.4750   -4.1917    0.0000 C   0  0  0  0  0  0  0  0  0  0  0  0
    4.9000   -4.1667    0.0000 C   0  0  0  0  0  0  0  0  0  0  0  0
    3.7042   -4.1917    0.0000 C   0  0  0  0  0  0  0  0  0  0  0  0
    3.0917   -3.8375    0.0000 C   0  0  0  0  0  0  0  0  0  0  0  0
    4.9000   -4.9042    0.0000 N   0  0  0  0  0  0  0  0  0  0  0  0
    2.4750   -4.9042    0.0000 C   0  0  0  0  0  0  0  0  0  0  0  0
    1.8542   -3.8375    0.0000 C   0  0  0  0  0  0  0  0  0  0  0  0
    3.7125   -4.8917    0.0000 O   0  0  0  0  0  0  0  0  0  0  0  0
    5.4792   -3.7667    0.0000 N   0  0  0  0  0  0  0  0  0  0  0  0
    1.8542   -3.1292    0.0000 Cl  0  0  0  0  0  0  0  0  0  0  0  0
    3.0917   -5.2667    0.0000 Cl  0  0  0  0  0  0  0  0  0  0  0  0
    1.2417   -4.9042    0.0000 C   0  0  0  0  0  0  0  0  0  0  0  0
    1.8542   -5.2667    0.0000 C   0  0  0  0  0  0  0  0  0  0  0  0
    1.2417   -4.1917    0.0000 C   0  0  0  0  0  0  0  0  0  0  0  0
  3  6  1  0
  4  2  1  0
  5  2  1  0
  6  5  1  0
  7  4  2  0
  8  3  2  0
  9  3  1  0
 10  5  2  0
 11  4  1  0
 12  9  1  0
 13  8  1  0
 14 16  1  0
 15  8  1  0
 16  9  2  0
 14 15  2  0
M  END
> <chembl_id>
CHEMBL1200494

> <chembl_pref_name>
GUANFACINE HYDROCHLORIDE

$$$$

     RDKit          2D

 12 12  0  0  0  0  0  0  0  0999 V2000
    0.6792    2.3000    0.0000 S   0  0  0  0  0  0  0  0  0  0  0  0
    0.0167    1.1625    0.0000 C   0  0  0  0  0  0  0  0  0  0  0  0
    1.8167    1.6333    0.0000 O   0  0  0  0  0  0  0  0  0  0  0  0
   -0.4333    2.9458    0.0000 O   0  0  0  0  0  0  0  0  0  0  0  0
    1.3417    3.4458    0.0000 N   0  0  0  0  0  0  0  0  0  0  0  0
    0.6667    0.0458    0.0000 C   0  0  0  0  0  0  0  0  0  0  0  0
   -1.2583    1.1625    0.0000 C   0  0  0  0  0  0  0  0  0  0  0  0
   -1.9208    0.0458    0.0000 C   0  0  0  0  0  0  0  0  0  0  0  0
    0.0167   -1.0875    0.0000 C   0  0  0  0  0  0  0  0  0  0  0  0
   -1.2625   -1.0875    0.0000 C   0  0  0  0  0  0  0  0  0  0  0  0
   -1.2625   -3.3542    0.0000 N   0  0  0  0  0  0  0  0  0  0  0  0
   -1.9208   -2.2167    0.0000 C   0  0  0  0  0  0  0  0  0  0  0  0
  2  1  1  0
  3  1  2  0
  4  1  2  0
  5  1  1  0
  6  2  2  0
  7  2  1  0
  8  7  2  0
  9  6  1  0
 10  8  1  0
 11 12  1  0
 12 10  1  0
  9 10  2  0
M  END
> <chembl_id>
CHEMBL419

> <chembl_pref_name>
MAFENIDE

$$$$

     RDKit          2D

 14 13  0  0  0  0  0  0  0  0999 V2000
   -2.1625   -1.8792    0.0000 Na  0  0  0  0  0 15  0  0  0  0  0  0
    0.1625   -1.2000    0.0000 C   0  0  0  0  0  0  0  0  0  0  0  0
    1.5625   -1.2000    0.0000 C   0  0  0  0  0  0  0  0  0  0  0  0
    2.0167    0.1833    0.0000 C   0  0  0  0  0  0  0  0  0  0  0  0
   -0.2708    0.1708    0.0000 C   0  0  0  0  0  0  0  0  0  0  0  0
    0.8625    1.0208    0.0000 O   0  0  0  0  0  0  0  0  0  0  0  0
   -0.6833   -2.3542    0.0000 O   0  0  0  0  0  0  0  0  0  0  0  0
   -1.6458    0.6083    0.0000 C   0  0  0  0  0  0  0  0  0  0  0  0
    3.3875    0.6250    0.0000 O   0  0  0  0  0  0  0  0  0  0  0  0
    2.4000   -2.3542    0.0000 O   0  0  0  0  0  0  0  0  0  0  0  0
   -2.7083   -0.3417    0.0000 O   0  0  0  0  0  0  0  0  0  0  0  0
   -3.3125    2.4583    0.0000 O   0  0  0  0  0  0  0  0  0  0  0  0
   -1.9458    2.0208    0.0000 C   0  0  0  0  0  0  0  0  0  0  0  0
   -0.4377    1.1568    0.0000 H   0  0  0  0  0  0  0  0  0  0  0  0
  3  2  2  0
  4  3  1  0
  5  2  1  0
  5  6  1  0
  7  2  1  0
  8  5  1  0
  9  4  2  0
 10  3  1  0
  8 11  1  1
 12 13  1  0
 13  8  1  0
  6  4  1  0
  5 14  1  6
M  CHG  2   1   1   7  -1
M  END
> <chembl_id>
CHEMBL591665

> <chembl_pref_name>
SODIUM ASCORBATE

$$$$

     RDKit          2D

 16 17  0  0  0  0  0  0  0  0999 V2000
   -0.6833    0.6083    0.0000 N   0  0  0  0  0  0  0  0  0  0  0  0
   -0.0958   -0.2000    0.0000 C   0  0  0  0  0  0  0  0  0  0  0  0
   -0.6875   -1.0167    0.0000 S   0  0  0  0  0  0  0  0  0  0  0  0
   -1.6375    0.2875    0.0000 C   0  0  0  0  0  0  0  0  0  0  0  0
   -2.4958    0.8750    0.0000 C   0  0  0  0  0  0  0  0  0  0  0  0
   -1.6375   -0.7292    0.0000 C   0  0  0  0  0  0  0  0  0  0  0  0
   -3.4208    0.4625    0.0000 C   0  0  0  0  0  0  0  0  0  0  0  0
    0.9042   -0.2000    0.0000 C   0  0  0  0  0  0  0  0  0  0  0  0
   -3.5375   -0.5667    0.0000 O   0  0  0  0  0  0  0  0  0  0  0  0
    1.3750    0.6708    0.0000 C   0  0  0  0  0  0  0  0  0  0  0  0
    1.4167   -1.0917    0.0000 C   0  0  0  0  0  0  0  0  0  0  0  0
    2.9167   -0.1750    0.0000 C   0  0  0  0  0  0  0  0  0  0  0  0
   -4.1583    1.1208    0.0000 O   0  0  0  0  0  0  0  0  0  0  0  0
    2.4167    0.6625    0.0000 C   0  0  0  0  0  0  0  0  0  0  0  0
    2.4292   -1.0792    0.0000 C   0  0  0  0  0  0  0  0  0  0  0  0
    3.9292   -0.1667    0.0000 Cl  0  0  0  0  0  0  0  0  0  0  0  0
  2  1  2  0
  3  2  1  0
  4  1  1  0
  5  4  1  0
  6  4  2  0
  7  5  1  0
  8  2  1  0
  9  7  2  0
 10  8  1  0
 11  8  2  0
 12 15  2  0
 13  7  1  0
 14 10  2  0
 15 11  1  0
 16 12  1  0
  3  6  1  0
 14 12  1  0
M  END
> <chembl_id>
CHEMBL1909282

> <chembl_pref_name>
FENCLOZIC ACID

$$$$

     RDKit          2D

 18 19  0  0  0  0  0  0  0  0999 V2000
    1.0542   -0.9625    0.0000 C   0  0  0  0  0  0  0  0  0  0  0  0
    1.6667   -1.3167    0.0000 N   0  0  0  0  0  0  0  0  0  0  0  0
    2.2792   -0.9625    0.0000 C   0  0  0  0  0  0  0  0  0  0  0  0
   -0.1750   -0.9625    0.0000 N   0  0  0  0  0  0  0  0  0  0  0  0
    0.4375   -1.3167    0.0000 C   0  0  0  0  0  0  0  0  0  0  0  0
    1.0542   -0.2542    0.0000 O   0  0  0  0  0  0  0  0  0  0  0  0
    2.2750   -0.2542    0.0000 C   0  0  0  0  0  0  0  0  0  0  0  0
    2.8917   -1.3167    0.0000 C   0  0  0  0  0  0  0  0  0  0  0  0
   -0.1750   -0.2542    0.0000 C   0  0  0  0  0  0  0  0  0  0  0  0
   -0.7833   -1.3167    0.0000 C   0  0  0  0  0  0  0  0  0  0  0  0
    3.5042   -0.2542    0.0000 C   0  0  0  0  0  0  0  0  0  0  0  0
    0.4375   -2.0250    0.0000 C   0  0  0  0  0  0  0  0  0  0  0  0
    3.5042   -0.9667    0.0000 C   0  0  0  0  0  0  0  0  0  0  0  0
    2.8875    0.0958    0.0000 C   0  0  0  0  0  0  0  0  0  0  0  0
    2.8875   -2.0292    0.0000 C   0  0  0  0  0  0  0  0  0  0  0  0
    1.6625    0.0958    0.0000 C   0  0  0  0  0  0  0  0  0  0  0  0
   -0.7833   -2.0250    0.0000 C   0  0  0  0  0  0  0  0  0  0  0  0
   -0.1750   -2.3792    0.0000 C   0  0  0  0  0  0  0  0  0  0  0  0
  2  1  1  0
  3  2  1  0
  4  5  1  0
  5  1  1  0
  6  1  2  0
  7  3  1  0
  8  3  2  0
  9  4  1  0
 10  4  1  0
 11 13  2  0
 12  5  1  0
 13  8  1  0
 14  7  2  0
 15  8  1  0
 16  7  1  0
 17 18  1  0
 18 12  1  0
 17 10  1  0
 11 14  1  0
M  END
> <chembl_id>
CHEMBL1087

> <chembl_pref_name>
MEPIVACAINE

$$$$

     RDKit          2D

 24 28  0  0  0  0  0  0  0  0999 V2000
   -8.6045  -17.2190    0.0000 C   0  0  0  0  0  0  0  0  0  0  0  0
  -10.1417  -17.2190    0.0000 C   0  0  0  0  0  0  0  0  0  0  0  0
   -7.8404  -15.8819    0.0000 C   0  0  0  0  0  0  0  0  0  0  0  0
  -10.9058  -18.5561    0.0000 C   0  0  0  0  0  0  0  0  0  0  0  0
   -7.8496  -18.5561    0.0000 C   0  0  0  0  0  0  0  0  0  0  0  0
   -9.4504  -19.3202    0.0000 O   0  0  0  0  0  0  0  0  0  0  0  0
   -8.6045  -14.5630    0.0000 C   0  0  0  0  0  0  0  0  0  0  0  0
  -10.9058  -15.8819    0.0000 C   0  0  0  0  0  0  0  0  0  0  0  0
   -6.2942  -15.9000    0.0000 C   0  0  0  0  0  0  0  0  0  0  0  0
  -10.1417  -14.5448    0.0000 C   0  0  0  0  0  0  0  0  0  0  0  0
   -7.8223  -13.2259    0.0000 N   0  0  0  0  0  0  0  0  0  0  0  0
   -9.3958  -15.8728    0.0000 C   0  0  0  0  0  0  0  0  0  0  0  0
   -5.5482  -17.2371    0.0000 C   0  0  0  0  0  0  0  0  0  0  0  0
   -6.3123  -18.5561    0.0000 C   0  0  0  0  0  0  0  0  0  0  0  0
  -12.4520  -18.5561    0.0000 C   0  0  0  0  0  0  0  0  0  0  0  0
   -9.3777  -13.2259    0.0000 C   0  0  0  0  0  0  0  0  0  0  0  0
  -12.4520  -15.8819    0.0000 C   0  0  0  0  0  0  0  0  0  0  0  0
  -13.2161  -17.2190    0.0000 C   0  0  0  0  0  0  0  0  0  0  0  0
  -13.2252  -19.8932    0.0000 O   0  0  0  0  0  0  0  0  0  0  0  0
   -5.5482  -19.9113    0.0000 O   0  0  0  0  0  0  0  0  0  0  0  0
   -6.4852  -12.4437    0.0000 C   0  0  0  0  0  0  0  0  0  0  0  0
   -9.0969  -13.6926    0.0000 H   0  0  0  0  0  0  0  0  0  0  0  0
   -7.6288  -19.5314    0.0000 H   0  0  0  0  0  0  0  0  0  0  0  0
   -7.3360  -15.0184    0.0000 H   0  0  0  0  0  0  0  0  0  0  0  0
  2  1  1  0
  3  1  1  0
  4  2  1  0
  5  1  1  0
  5  6  1  0
  7  3  1  0
  8  2  2  0
  9  3  1  0
 10  7  1  0
  7 11  1  0
  1 12  1  1
 13 14  1  0
 14  5  1  0
 15  4  2  0
 16 12  1  0
 17  8  1  0
 18 15  1  0
 19 15  1  0
 14 20  1  6
 21 11  1  0
  6  4  1  0
 16 11  1  0
  9 13  2  0
 10  8  1  0
 17 18  2  0
  7 22  1  6
  5 23  1  1
  3 24  1  1
M  END
> <chembl_id>
CHEMBL70

> <chembl_pref_name>
MORPHINE

$$$$

     RDKit          2D

 11 12  0  0  0  0  0  0  0  0999 V2000
    0.9667   -1.4000    0.0000 O   0  0  0  0  0  0  0  0  0  0  0  0
    2.3042   -0.6250    0.0000 C   0  0  0  0  0  0  0  0  0  0  0  0
    0.9667    1.6833    0.0000 C   0  0  0  0  0  0  0  0  0  0  0  0
   -0.3708   -0.6250    0.0000 C   0  0  0  0  0  0  0  0  0  0  0  0
    2.3042    0.9125    0.0000 C   0  0  0  0  0  0  0  0  0  0  0  0
   -0.3708    0.9125    0.0000 C   0  0  0  0  0  0  0  0  0  0  0  0
    3.6375   -1.4000    0.0000 O   0  0  0  0  0  0  0  0  0  0  0  0
   -1.7000   -1.4000    0.0000 C   0  0  0  0  0  0  0  0  0  0  0  0
   -1.7000    1.6833    0.0000 C   0  0  0  0  0  0  0  0  0  0  0  0
   -3.0375   -0.6250    0.0000 C   0  0  0  0  0  0  0  0  0  0  0  0
   -3.0375    0.9125    0.0000 C   0  0  0  0  0  0  0  0  0  0  0  0
  2  1  1  0
  3  6  1  0
  4  1  1  0
  5  2  1  0
  6  4  2  0
  7  2  2  0
  8  4  1  0
  9  6  1  0
 10  8  2  0
 11 10  1  0
  5  3  2  0
  9 11  2  0
M  END
> <chembl_id>
CHEMBL6466

> <chembl_pref_name>
COUMARIN

$$$$

     RDKit          2D

 10 11  0  0  0  0  0  0  0  0999 V2000
    0.2167    0.0625    0.0000 C   0  0  0  0  0  0  0  0  0  0  0  0
    0.2167   -1.3875    0.0000 C   0  0  0  0  0  0  0  0  0  0  0  0
    2.4000   -0.6167    0.0000 N   0  0  0  0  0  0  0  0  0  0  0  0
   -1.0333    0.7958    0.0000 C   0  0  0  0  0  0  0  0  0  0  0  0
   -1.0333   -2.0750    0.0000 N   0  0  0  0  0  0  0  0  0  0  0  0
    1.5917   -1.7917    0.0000 N   0  0  0  0  0  0  0  0  0  0  0  0
   -2.2833    0.0625    0.0000 N   0  0  0  0  0  0  0  0  0  0  0  0
   -2.2833   -1.3875    0.0000 C   0  0  0  0  0  0  0  0  0  0  0  0
    1.5917    0.5083    0.0000 C   0  0  0  0  0  0  0  0  0  0  0  0
   -1.0333    2.2083    0.0000 S   0  0  0  0  0  0  0  0  0  0  0  0
  2  1  2  0
  3  9  2  0
  4  1  1  0
  5  2  1  0
  6  2  1  0
  7  4  2  0
  8  7  1  0
  9  1  1  0
 10  4  1  0
  6  3  1  0
  5  8  2  0
M  END
> <chembl_id>
CHEMBL119423

> <chembl_pref_name>
TISOPURINE

$$$$

     RDKit          2D

  7  6  0  0  0  0  0  0  0  0999 V2000
    1.0917    0.0458    0.0000 S   0  0  0  0  0  0  0  0  0  0  0  0
   -0.3208    0.0458    0.0000 C   0  0  0  0  0  0  0  0  0  0  0  0
    1.0917   -1.3917    0.0000 O   0  0  0  0  0  0  0  0  0  0  0  0
    1.0917    1.4958    0.0000 O   0  0  0  0  0  0  0  0  0  0  0  0
    2.5375    0.0458    0.0000 O   0  0  0  0  0  0  0  0  0  0  0  0
   -2.4625    1.2833    0.0000 N   0  0  0  0  0  0  0  0  0  0  0  0
   -1.0458    1.2833    0.0000 C   0  0  0  0  0  0  0  0  0  0  0  0
  2  1  1  0
  3  1  2  0
  4  1  2  0
  5  1  1  0
  6  7  1  0
  7  2  1  0
M  END
> <chembl_id>
CHEMBL239243

> <chembl_pref_name>
TAURINE

$$$$

     RDKit          2D

 15 16  0  0  1  0  0  0  0  0999 V2000
    5.5125   -6.0042    0.0000 N   0  0  0  0  0  0  0  0  0  0  0  0
    4.1875   -4.7750    0.0000 C   0  0  0  0  0  0  0  0  0  0  0  0
    4.1875   -4.0500    0.0000 C   0  0  0  0  0  0  0  0  0  0  0  0
    4.8625   -4.9750    0.0000 C   0  0  0  0  0  0  0  0  0  0  0  0
    4.8625   -3.8167    0.0000 O   0  0  0  0  0  0  0  0  0  0  0  0
    3.5125   -4.9875    0.0000 O   0  0  0  0  0  0  0  0  0  0  0  0
    4.8875   -5.6792    0.0000 O   0  0  0  0  0  0  0  0  0  0  0  0
    3.5167   -3.8417    0.0000 C   0  0  0  0  0  0  0  0  0  0  0  0
    5.2917   -4.4167    0.0000 C   0  0  0  0  0  0  0  0  0  0  0  0
    5.5375   -6.7167    0.0000 O   0  0  0  0  0  0  0  0  0  0  0  0
    6.0917   -5.6125    0.0000 O   0  0  0  0  0  0  0  0  0  0  0  0
    3.0917   -4.4000    0.0000 C   0  0  0  0  0  0  0  0  0  0  0  0
    3.3042   -3.1667    0.0000 O   0  0  0  0  0  0  0  0  0  0  0  0
    4.1875   -5.4667    0.0000 H   0  0  0  0  0  0  0  0  0  0  0  0
    4.1625   -3.3375    0.0000 H   0  0  0  0  0  0  0  0  0  0  0  0
  2  4  1  0
  3  2  1  0
  4  7  1  1
  5  9  1  0
  6  2  1  0
  7  1  1  0
  8  3  1  0
  9  4  1  0
 10  1  1  0
 11  1  2  0
 12  6  1  0
  8 13  1  6
  2 14  1  6
  3 15  1  6
  5  3  1  0
 12  8  1  0
M  CHG  2   1   1  10  -1
M  END
> <chembl_id>
CHEMBL1311

> <chembl_pref_name>
ISOSORBIDE MONONITRATE

$$$$

     RDKit          2D

 21 23  0  0  1  0  0  0  0  0999 V2000
   -9.0275   -0.5426    0.0000 C   0  0  0  0  0  0  0  0  0  0  0  0
   -9.7420   -0.1301    0.0000 C   0  0  0  0  0  0  0  0  0  0  0  0
  -10.4565   -0.5426    0.0000 C   0  0  0  0  0  0  0  0  0  0  0  0
  -10.4565   -1.3676    0.0000 C   0  0  0  0  0  0  0  0  0  0  0  0
   -9.7420   -1.7801    0.0000 C   0  0  0  0  0  0  0  0  0  0  0  0
   -9.0275   -1.3676    0.0000 C   0  0  0  0  0  0  0  0  0  0  0  0
   -8.3130   -0.1301    0.0000 C   0  0  0  0  0  0  0  0  0  0  0  0
   -7.5986   -0.5426    0.0000 C   0  0  0  0  0  0  0  0  0  0  0  0
   -7.5986   -1.3676    0.0000 C   0  0  0  0  0  0  0  0  0  0  0  0
   -8.3131   -1.7801    0.0000 C   0  0  0  0  0  0  0  0  0  0  0  0
   -6.0884   -0.4837    0.0000 N   0  0  0  0  0  0  0  0  0  0  0  0
   -5.3518   -1.7507    0.0000 C   0  0  0  0  0  0  0  0  0  0  0  0
   -6.5009   -2.7524    0.0000 C   0  0  0  0  0  0  0  0  0  0  0  0
   -6.8841   -1.7801    0.0000 C   0  0  0  0  0  0  0  0  0  0  0  0
   -8.7144   -2.5009    0.0000 C   0  0  0  0  0  0  0  0  0  0  0  0
   -5.6910    0.2393    0.0000 C   0  0  0  0  0  0  0  0  0  0  0  0
   -4.8660    0.2393    0.0000 C   0  0  0  0  0  0  0  0  0  0  0  0
   -4.4535    0.9538    0.0000 C   0  0  0  0  0  0  0  0  0  0  0  0
   -3.6285    0.9538    0.0000 C   0  0  0  0  0  0  0  0  0  0  0  0
   -4.8660    1.6682    0.0000 C   0  0  0  0  0  0  0  0  0  0  0  0
  -11.1710   -1.7801    0.0000 O   0  0  0  0  0  0  0  0  0  0  0  0
  1  2  1  0
  2  3  2  0
  3  4  1  0
  4  5  2  0
  5  6  1  0
 10  6  1  0
  6  1  2  0
  1  7  1  0
  7  8  1  0
  8  9  1  0
  9 10  1  0
 10 13  1  0
 13 12  1  0
 12 11  1  0
  8 11  1  0
  9 14  1  0
 10 15  1  0
 11 16  1  0
 16 17  1  0
 17 18  2  0
 18 19  1  0
 18 20  1  0
  4 21  1  0
M  END
> <chembl_id>
CHEMBL100116

> <chembl_pref_name>
PENTAZOCINE

$$$$

     RDKit          2D

 17 16  0  0  0  0  0  0  0  0999 V2000
    1.2964   -3.5652    0.0000 C   0  0  0  0  0  0  0  0  0  0  0  0
    2.0109   -3.1527    0.0000 C   0  0  0  0  0  0  0  0  0  0  0  0
    2.7254   -3.5652    0.0000 N   0  0  0  0  0  0  0  0  0  0  0  0
    3.4398   -3.1527    0.0000 C   0  0  0  0  0  0  0  0  0  0  0  0
    4.1543   -3.5652    0.0000 C   0  0  0  0  0  0  0  0  0  0  0  0
   -1.1273   -0.3741    0.0000 S   0  0  0  0  0  0  0  0  0  0  0  0
   -0.3453   -0.0960    0.0000 C   0  0  0  0  0  0  0  0  0  0  0  0
   -0.1990    0.7172    0.0000 C   0  0  0  0  0  0  0  0  0  0  0  0
    0.2759   -0.6332    0.0000 C   0  0  0  0  0  0  0  0  0  0  0  0
    0.5756    0.9906    0.0000 C   0  0  0  0  0  0  0  0  0  0  0  0
   -1.9356   -0.5109    0.0000 O   0  0  0  0  0  0  0  0  0  0  0  0
   -1.3360    0.4293    0.0000 O   0  0  0  0  0  0  0  0  0  0  0  0
   -1.0625   -1.1945    0.0000 O   0  0  0  0  0  0  0  0  0  0  0  0
    1.2041    0.4581    0.0000 C   0  0  0  0  0  0  0  0  0  0  0  0
   -0.8323    1.2496    0.0000 O   0  0  0  0  0  0  0  0  0  0  0  0
    1.0530   -0.3550    0.0000 C   0  0  0  0  0  0  0  0  0  0  0  0
    1.6808   -0.8896    0.0000 O   0  0  0  0  0  0  0  0  0  0  0  0
  1  2  1  0
  2  3  1  0
  3  4  1  0
  4  5  1  0
  7  6  1  0
  8  7  1  0
  9  7  2  0
 10  8  2  0
 11  6  2  0
 12  6  2  0
 13  6  1  0
 14 16  2  0
 15  8  1  0
 16  9  1  0
 10 14  1  0
 16 17  1  0
M  END
> <chembl_id>
CHEMBL1514715

> <chembl_pref_name>
ETHAMSYLATE

$$$$

     RDKit          2D

 14 16  0  0  0  0  0  0  0  0999 V2000
   -4.9924    1.8737    0.0000 C   0  0  0  0  0  0  0  0  0  0  0  0
   -5.7069    1.4611    0.0000 C   0  0  0  0  0  0  0  0  0  0  0  0
   -5.7069    0.6361    0.0000 C   0  0  0  0  0  0  0  0  0  0  0  0
   -4.9924    0.2236    0.0000 C   0  0  0  0  0  0  0  0  0  0  0  0
   -4.2779    0.6361    0.0000 C   0  0  0  0  0  0  0  0  0  0  0  0
   -4.2779    1.4611    0.0000 C   0  0  0  0  0  0  0  0  0  0  0  0
   -3.4934    0.3812    0.0000 C   0  0  0  0  0  0  0  0  0  0  0  0
   -3.0084    1.0486    0.0000 O   0  0  0  0  0  0  0  0  0  0  0  0
   -3.4933    1.7160    0.0000 C   0  0  0  0  0  0  0  0  0  0  0  0
   -4.2348    2.2850    0.0000 C   0  0  0  0  0  0  0  0  0  0  0  0
   -4.1917   -0.1844    0.0000 C   0  0  0  0  0  0  0  0  0  0  0  0
   -5.0356    1.0498    0.0000 O   0  0  0  0  0  0  0  0  0  0  0  0
   -3.2383    2.5006    0.0000 O   0  0  0  0  0  0  0  0  0  0  0  0
   -3.2384   -0.4034    0.0000 O   0  0  0  0  0  0  0  0  0  0  0  0
  1  2  1  0
  2  3  1  0
  3  4  1  0
  4  5  1  0
  5  6  1  0
  1  6  1  0
  7  8  1  0
  8  9  1  0
  5  7  1  0
  6  9  1  0
  6 10  1  6
  5 11  1  6
  1 12  1  1
  4 12  1  1
  9 13  2  0
  7 14  2  0
M  END
> <chembl_id>
CHEMBL48449

> <chembl_pref_name>
CANTHARIDIN

$$$$

     RDKit          2D

 14 14  0  0  0  0  0  0  0  0999 V2000
    1.0417   -0.3917    0.0000 S   0  0  0  0  0  0  0  0  0  0  0  0
    2.3500   -0.3917    0.0000 N   0  0  0  0  0  0  0  0  0  0  0  0
    2.9875    0.7125    0.0000 C   0  0  0  0  0  0  0  0  0  0  0  0
   -0.2625   -0.3917    0.0000 C   0  0  0  0  0  0  0  0  0  0  0  0
    1.0417   -1.6625    0.0000 O   0  0  0  0  0  0  0  0  0  0  0  0
    1.0417    0.8833    0.0000 O   0  0  0  0  0  0  0  0  0  0  0  0
    2.3292    1.7833    0.0000 N   0  0  0  0  0  0  0  0  0  0  0  0
   -0.9208    0.7125    0.0000 C   0  0  0  0  0  0  0  0  0  0  0  0
   -0.9208   -1.4750    0.0000 C   0  0  0  0  0  0  0  0  0  0  0  0
    4.2042    0.7125    0.0000 N   0  0  0  0  0  0  0  0  0  0  0  0
   -2.8083   -0.3917    0.0000 C   0  0  0  0  0  0  0  0  0  0  0  0
   -4.1000   -0.3917    0.0000 N   0  0  0  0  0  0  0  0  0  0  0  0
   -2.1750    0.7125    0.0000 C   0  0  0  0  0  0  0  0  0  0  0  0
   -2.1750   -1.4750    0.0000 C   0  0  0  0  0  0  0  0  0  0  0  0
  2  1  1  0
  3  2  1  0
  4  1  1  0
  5  1  2  0
  6  1  2  0
  7  3  2  0
  8  4  1  0
  9  4  2  0
 10  3  1  0
 11 14  2  0
 12 11  1  0
 13  8  2  0
 14  9  1  0
 13 11  1  0
M  END
> <chembl_id>
CHEMBL338802

> <chembl_pref_name>
SULFAGUANIDINE

$$$$

     RDKit          2D

 11 11  0  0  0  0  0  0  0  0999 V2000
    1.5548   -3.6021    0.0000 C   0  0  0  0  0  0  0  0  0  0  0  0
    2.5951   -3.0039    0.0000 C   0  0  0  0  0  0  0  0  0  0  0  0
    3.6331   -3.6060    0.0000 O   0  0  0  0  0  0  0  0  0  0  0  0
    2.5973   -1.5031    0.0000 N   0  0  0  0  0  0  0  0  0  0  0  0
    1.2990   -0.7500    0.0000 C   0  0  0  0  0  0  0  0  0  0  0  0
    1.2990    0.7500    0.0000 C   0  0  0  0  0  0  0  0  0  0  0  0
    0.0000    1.5000    0.0000 C   0  0  0  0  0  0  0  0  0  0  0  0
   -1.2990    0.7500    0.0000 C   0  0  0  0  0  0  0  0  0  0  0  0
   -2.3383    1.3500    0.0000 O   0  0  0  0  0  0  0  0  0  0  0  0
   -1.2990   -0.7500    0.0000 C   0  0  0  0  0  0  0  0  0  0  0  0
    0.0000   -1.5000    0.0000 C   0  0  0  0  0  0  0  0  0  0  0  0
  1  2  1  0
  2  3  2  0
  2  4  1  0
  4  5  1  0
  5  6  2  0
  6  7  1  0
  7  8  2  0
  8  9  1  0
  8 10  1  0
 10 11  2  0
 11  5  1  0
M  END
> <chembl_id>
CHEMBL112

> <chembl_pref_name>
ACETAMINOPHEN

$$$$

     RDKit          2D

 17 19  0  0  0  0  0  0  0  0999 V2000
    4.4792   -5.1917    0.0000 C   0  0  0  0  0  0  0  0  0  0  0  0
    4.4792   -4.4917    0.0000 C   0  0  0  0  0  0  0  0  0  0  0  0
    5.7042   -5.1875    0.0000 C   0  0  0  0  0  0  0  0  0  0  0  0
    5.0917   -5.5500    0.0000 C   0  0  0  0  0  0  0  0  0  0  0  0
    5.7042   -4.4875    0.0000 C   0  0  0  0  0  0  0  0  0  0  0  0
    3.8625   -4.1417    0.0000 C   0  0  0  0  0  0  0  0  0  0  0  0
    3.8667   -5.5542    0.0000 O   0  0  0  0  0  0  0  0  0  0  0  0
    6.3792   -5.4042    0.0000 O   0  0  0  0  0  0  0  0  0  0  0  0
    3.2500   -5.2042    0.0000 C   0  0  0  0  0  0  0  0  0  0  0  0
    5.0792   -4.1292    0.0000 C   0  0  0  0  0  0  0  0  0  0  0  0
    3.2417   -4.5000    0.0000 C   0  0  0  0  0  0  0  0  0  0  0  0
    6.3792   -4.2542    0.0000 C   0  0  0  0  0  0  0  0  0  0  0  0
    6.8000   -4.8375    0.0000 C   0  0  0  0  0  0  0  0  0  0  0  0
    2.6292   -5.5667    0.0000 O   0  0  0  0  0  0  0  0  0  0  0  0
    5.0917   -6.2625    0.0000 C   0  0  0  0  0  0  0  0  0  0  0  0
    3.8542   -3.4250    0.0000 C   0  0  0  0  0  0  0  0  0  0  0  0
    7.5167   -4.8292    0.0000 C   0  0  0  0  0  0  0  0  0  0  0  0
  2  1  1  0
  3  4  1  0
  4  1  2  0
  5  3  2  0
  6  2  1  0
  7  1  1  0
  8  3  1  0
  9  7  1  0
 10  2  2  0
 11  9  1  0
 12  5  1  0
 13  8  1  0
 14  9  2  0
 15  4  1  0
 16  6  1  0
 17 13  1  0
  5 10  1  0
 11  6  2  0
 13 12  2  0
M  END
> <chembl_id>
CHEMBL1475

> <chembl_pref_name>
TRIOXSALEN

$$$$

     RDKit          2D

 15 14  0  0  0  0  0  0  0  0999 V2000
    4.0667   -1.9000    0.0000 Cl  0  0  0  0  0  0  0  0  0  0  0  0
    1.5500   -1.9292    0.0000 C   0  0  0  0  0  0  0  0  0  0  0  0
    0.9375   -1.5750    0.0000 C   0  0  0  0  0  0  0  0  0  0  0  0
    0.9292   -0.8625    0.0000 N   0  0  0  0  0  0  0  0  0  0  0  0
    1.5417   -2.6417    0.0000 C   0  0  0  0  0  0  0  0  0  0  0  0
    2.1625   -1.5667    0.0000 O   0  0  0  0  0  0  0  0  0  0  0  0
    0.3167   -1.9292    0.0000 C   0  0  0  0  0  0  0  0  0  0  0  0
    0.3125   -0.5042    0.0000 C   0  0  0  0  0  0  0  0  0  0  0  0
    1.5417   -0.5042    0.0000 C   0  0  0  0  0  0  0  0  0  0  0  0
    0.9250   -2.9917    0.0000 C   0  0  0  0  0  0  0  0  0  0  0  0
    2.1542   -2.9917    0.0000 C   0  0  0  0  0  0  0  0  0  0  0  0
   -0.3083   -0.8542    0.0000 C   0  0  0  0  0  0  0  0  0  0  0  0
    2.1542   -3.7042    0.0000 C   0  0  0  0  0  0  0  0  0  0  0  0
    0.9167   -3.7042    0.0000 C   0  0  0  0  0  0  0  0  0  0  0  0
    1.5375   -4.0625    0.0000 C   0  0  0  0  0  0  0  0  0  0  0  0
  3  2  1  0
  4  3  1  0
  5  2  1  0
  6  2  1  0
  7  3  1  0
  8  4  1  0
  9  4  1  0
 10  5  2  0
 11  5  1  0
 12  8  1  0
 13 11  2  0
 14 10  1  0
 15 14  2  0
 13 15  1  0
M  END
> <chembl_id>
CHEMBL2106678

> <chembl_pref_name>
ETAFEDRINE HYDROCHLORIDE

$$$$

     RDKit          2D

 11 11  0  0  0  0  0  0  0  0999 V2000
    4.4625   -3.9417    0.0000 C   0  0  0  0  0  0  0  0  0  0  0  0
    4.4625   -4.6542    0.0000 C   0  0  0  0  0  0  0  0  0  0  0  0
    5.0667   -3.5792    0.0000 S   0  0  0  0  0  0  0  0  0  0  0  0
    4.4625   -6.0667    0.0000 N   0  0  0  0  0  0  0  0  0  0  0  0
    5.0667   -5.0042    0.0000 C   0  0  0  0  0  0  0  0  0  0  0  0
    5.0667   -5.7167    0.0000 C   0  0  0  0  0  0  0  0  0  0  0  0
    3.8417   -3.5792    0.0000 N   0  0  0  0  0  0  0  0  0  0  0  0
    3.8417   -5.7167    0.0000 C   0  0  0  0  0  0  0  0  0  0  0  0
    3.8417   -5.0042    0.0000 C   0  0  0  0  0  0  0  0  0  0  0  0
    5.6875   -6.0667    0.0000 C   0  0  0  0  0  0  0  0  0  0  0  0
    6.3042   -5.7167    0.0000 C   0  0  0  0  0  0  0  0  0  0  0  0
  2  1  1  0
  3  1  2  0
  4  8  1  0
  5  2  2  0
  6  5  1  0
  7  1  1  0
  8  9  2  0
  9  2  1  0
 10  6  1  0
 11 10  1  0
  4  6  2  0
M  END
> <chembl_id>
CHEMBL1441

> <chembl_pref_name>
ETHIONAMIDE

$$$$

     RDKit          2D

 17 18  0  0  0  0  0  0  0  0999 V2000
    4.7417   -5.1292    0.0000 C   0  0  0  0  0  0  0  0  0  0  0  0
    4.7417   -4.4167    0.0000 C   0  0  0  0  0  0  0  0  0  0  0  0
    5.3667   -5.4792    0.0000 C   0  0  0  0  0  0  0  0  0  0  0  0
    4.1292   -4.0667    0.0000 C   0  0  0  0  0  0  0  0  0  0  0  0
    4.1167   -5.4667    0.0000 C   0  0  0  0  0  0  0  0  0  0  0  0
    5.3667   -4.0667    0.0000 C   0  0  0  0  0  0  0  0  0  0  0  0
    7.8292   -6.1917    0.0000 O   0  0  0  0  0  0  0  0  0  0  0  0
    7.8292   -5.4792    0.0000 C   0  0  0  0  0  0  0  0  0  0  0  0
    5.9792   -5.1292    0.0000 C   0  0  0  0  0  0  0  0  0  0  0  0
    3.5042   -4.4042    0.0000 C   0  0  0  0  0  0  0  0  0  0  0  0
    5.9792   -4.4292    0.0000 C   0  0  0  0  0  0  0  0  0  0  0  0
    3.5042   -5.1167    0.0000 C   0  0  0  0  0  0  0  0  0  0  0  0
    7.2167   -5.1292    0.0000 C   0  0  0  0  0  0  0  0  0  0  0  0
    6.6042   -5.4792    0.0000 C   0  0  0  0  0  0  0  0  0  0  0  0
    2.9042   -4.0417    0.0000 O   0  0  0  0  0  0  0  0  0  0  0  0
    8.4417   -5.1292    0.0000 C   0  0  0  0  0  0  0  0  0  0  0  0
    2.2750   -4.3708    0.0000 C   0  0  0  0  0  0  0  0  0  0  0  0
  2  1  1  0
  3  1  2  0
  4  2  1  0
  5  1  1  0
  6  2  2  0
  7  8  2  0
  8 13  1  0
  9  3  1  0
 10 12  1  0
 11  9  2  0
 12  5  2  0
 13 14  1  0
 14  9  1  0
 15 10  1  0
 16  8  1  0
 17 15  1  0
 10  4  2  0
 11  6  1  0
M  END
> <chembl_id>
CHEMBL1070

> <chembl_pref_name>
NABUMETONE

$$$$

     RDKit          2D

 11 13  0  0  0  0  0  0  0  0999 V2000
    2.4917   -7.2500    0.0000 P   0  0  0  0  0  0  0  0  0  0  0  0
    3.1083   -7.6000    0.0000 N   0  0  0  0  0  0  0  0  0  0  0  0
    1.8833   -7.6042    0.0000 N   0  0  0  0  0  0  0  0  0  0  0  0
    2.4917   -7.9542    0.0000 N   0  0  0  0  0  0  0  0  0  0  0  0
    2.1333   -8.5667    0.0000 C   0  0  0  0  0  0  0  0  0  0  0  0
    2.8417   -8.5708    0.0000 C   0  0  0  0  0  0  0  0  0  0  0  0
    1.1750   -7.6125    0.0000 C   0  0  0  0  0  0  0  0  0  0  0  0
    1.5333   -8.2250    0.0000 C   0  0  0  0  0  0  0  0  0  0  0  0
    3.4667   -8.2083    0.0000 C   0  0  0  0  0  0  0  0  0  0  0  0
    3.8167   -7.5917    0.0000 C   0  0  0  0  0  0  0  0  0  0  0  0
    2.4917   -6.5417    0.0000 S   0  0  0  0  0  0  0  0  0  0  0  0
  2  1  1  0
  3  1  1  0
  4  1  1  0
  5  4  1  0
  6  4  1  0
  7  3  1  0
  8  3  1  0
  9  2  1  0
 10  2  1  0
 11  1  2  0
  5  6  1  0
  7  8  1  0
  9 10  1  0
M  END
> <chembl_id>
CHEMBL671

> <chembl_pref_name>
THIOTEPA

$$$$

     RDKit          2D

  8  8  0  0  0  0  0  0  0  0999 V2000
    0.2917    0.1750    0.0000 C   0  0  0  0  0  0  0  0  0  0  0  0
    2.4292   -1.0542    0.0000 O   0  0  0  0  0  0  0  0  0  0  0  0
    1.7250    0.1750    0.0000 C   0  0  0  0  0  0  0  0  0  0  0  0
   -0.4333   -1.0542    0.0000 C   0  0  0  0  0  0  0  0  0  0  0  0
   -0.4333    1.4125    0.0000 C   0  0  0  0  0  0  0  0  0  0  0  0
   -1.8625    1.4125    0.0000 C   0  0  0  0  0  0  0  0  0  0  0  0
   -1.8625   -1.0542    0.0000 C   0  0  0  0  0  0  0  0  0  0  0  0
   -2.5875    0.1750    0.0000 C   0  0  0  0  0  0  0  0  0  0  0  0
  2  3  1  0
  3  1  1  0
  4  1  1  0
  5  1  2  0
  6  5  1  0
  7  4  2  0
  8  6  2  0
  7  8  1  0
M  END
> <chembl_id>
CHEMBL720

> <chembl_pref_name>
BENZYL ALCOHOL

$$$$

     RDKit          2D

 16 16  0  0  0  0  0  0  0  0999 V2000
    5.6750   -8.1500    0.0000 C   0  0  0  0  0  0  0  0  0  0  0  0
    5.0542   -7.0792    0.0000 C   0  0  0  0  0  0  0  0  0  0  0  0
    5.0292   -7.7917    0.0000 C   0  0  0  0  0  0  0  0  0  0  0  0
    6.2792   -7.7917    0.0000 N   0  0  0  0  0  0  0  0  0  0  0  0
    5.6750   -6.7375    0.0000 N   0  0  0  0  0  0  0  0  0  0  0  0
    6.2750   -7.0917    0.0000 C   0  0  0  0  0  0  0  0  0  0  0  0
    4.4417   -6.7125    0.0000 O   0  0  0  0  0  0  0  0  0  0  0  0
    5.6792   -8.8667    0.0000 O   0  0  0  0  0  0  0  0  0  0  0  0
    6.8917   -6.7417    0.0000 O   0  0  0  0  0  0  0  0  0  0  0  0
    4.6792   -8.4125    0.0000 C   0  0  0  0  0  0  0  0  0  0  0  0
    3.9667   -7.1792    0.0000 C   0  0  0  0  0  0  0  0  0  0  0  0
    4.3292   -7.7917    0.0000 C   0  0  0  0  0  0  0  0  0  0  0  0
    3.2625   -7.1875    0.0000 C   0  0  0  0  0  0  0  0  0  0  0  0
    3.9792   -8.4167    0.0000 C   0  0  0  0  0  0  0  0  0  0  0  0
    5.0500   -9.0167    0.0000 C   0  0  0  0  0  0  0  0  0  0  0  0
    3.6292   -9.0375    0.0000 C   0  0  0  0  0  0  0  0  0  0  0  0
  2  3  1  0
  3  1  1  0
  4  1  1  0
  5  6  1  0
  6  4  1  0
  7  2  2  0
  8  1  2  0
  9  6  2  0
 10  3  1  0
 11 12  1  0
 12  3  1  0
 13 11  2  0
 14 10  1  0
 15 10  1  0
 16 14  1  0
  5  2  1  0
M  END
> <chembl_id>
CHEMBL1200802

> <chembl_pref_name>
TALBUTAL

$$$$

     RDKit          2D

 12 12  0  0  0  0  0  0  0  0999 V2000
    3.4625   -7.1917    0.0000 C   0  0  0  0  0  0  0  0  0  0  0  0
    2.8417   -7.5417    0.0000 C   0  0  0  0  0  0  0  0  0  0  0  0
    4.7000   -7.2042    0.0000 N   0  0  0  0  0  0  0  0  0  0  0  0
    5.3042   -6.8667    0.0000 C   0  0  0  0  0  0  0  0  0  0  0  0
    4.0792   -6.8417    0.0000 C   0  0  0  0  0  0  0  0  0  0  0  0
    5.9250   -7.2167    0.0000 C   0  0  0  0  0  0  0  0  0  0  0  0
    4.6917   -7.9167    0.0000 C   0  0  0  0  0  0  0  0  0  0  0  0
    6.5417   -6.8792    0.0000 C   0  0  0  0  0  0  0  0  0  0  0  0
    5.9125   -7.9292    0.0000 C   0  0  0  0  0  0  0  0  0  0  0  0
    6.5250   -8.2917    0.0000 C   0  0  0  0  0  0  0  0  0  0  0  0
    7.1542   -7.2417    0.0000 C   0  0  0  0  0  0  0  0  0  0  0  0
    7.1417   -7.9417    0.0000 C   0  0  0  0  0  0  0  0  0  0  0  0
  2  1  3  0
  3  5  1  0
  4  3  1  0
  5  1  1  0
  6  4  1  0
  7  3  1  0
  8  6  1  0
  9  6  2  0
 10  9  1  0
 11  8  2  0
 12 11  1  0
 12 10  2  0
M  END
> <chembl_id>
CHEMBL673

> <chembl_pref_name>
PARGYLINE

$$$$

     RDKit          2D

  5  5  0  0  0  0  0  0  0  0999 V2000
    4.9292   -6.2625    0.0000 C   0  0  0  0  0  0  0  0  0  0  0  0
    5.4292   -5.7667    0.0000 O   0  0  0  0  0  0  0  0  0  0  0  0
    5.4292   -6.7667    0.0000 C   0  0  0  0  0  0  0  0  0  0  0  0
    4.2167   -6.2625    0.0000 O   0  0  0  0  0  0  0  0  0  0  0  0
    5.9292   -6.2625    0.0000 C   0  0  0  0  0  0  0  0  0  0  0  0
  2  1  1  0
  3  1  1  0
  4  1  2  0
  5  3  1  0
  5  2  1  0
M  END
> <chembl_id>
CHEMBL1200627

> <chembl_pref_name>
PROPIOLACTONE

$$$$

     RDKit          2D

 18 19  0  0  0  0  0  0  0  0999 V2000
    3.7167   -5.1292    0.0000 C   0  0  0  0  0  0  0  0  0  0  0  0
    4.3375   -4.7750    0.0000 C   0  0  0  0  0  0  0  0  0  0  0  0
    3.1000   -4.7875    0.0000 C   0  0  0  0  0  0  0  0  0  0  0  0
    4.9542   -5.1167    0.0000 C   0  0  0  0  0  0  0  0  0  0  0  0
    5.5542   -4.7667    0.0000 C   0  0  0  0  0  0  0  0  0  0  0  0
    6.1792   -5.1167    0.0000 C   0  0  0  0  0  0  0  0  0  0  0  0
    6.8000   -4.7625    0.0000 C   0  0  0  0  0  0  0  0  0  0  0  0
    3.7250   -5.8375    0.0000 C   0  0  0  0  0  0  0  0  0  0  0  0
    5.5625   -4.0625    0.0000 C   0  0  0  0  0  0  0  0  0  0  0  0
    4.9542   -5.8292    0.0000 C   0  0  0  0  0  0  0  0  0  0  0  0
    3.1000   -4.0667    0.0000 O   0  0  0  0  0  0  0  0  0  0  0  0
    4.3375   -6.1917    0.0000 C   0  0  0  0  0  0  0  0  0  0  0  0
    6.7917   -4.0542    0.0000 C   0  0  0  0  0  0  0  0  0  0  0  0
    6.1792   -5.8292    0.0000 F   0  0  0  0  0  0  0  0  0  0  0  0
    2.4792   -5.1375    0.0000 O   0  0  0  0  0  0  0  0  0  0  0  0
    6.1792   -3.7042    0.0000 C   0  0  0  0  0  0  0  0  0  0  0  0
    3.1042   -6.1917    0.0000 O   0  0  0  0  0  0  0  0  0  0  0  0
    7.4125   -3.7042    0.0000 F   0  0  0  0  0  0  0  0  0  0  0  0
  2  1  1  0
  3  1  1  0
  4  2  2  0
  5  4  1  0
  6  5  2  0
  7  6  1  0
  8  1  2  0
  9  5  1  0
 10 12  2  0
 11  3  2  0
 12  8  1  0
 13 16  1  0
 14  6  1  0
 15  3  1  0
 16  9  2  0
 17  8  1  0
 18 13  1  0
 10  4  1  0
 13  7  2  0
M  END
> <chembl_id>
CHEMBL898

> <chembl_pref_name>
DIFLUNISAL

$$$$

     RDKit          2D

 14 14  0  0  1  0  0  0  0  0999 V2000
    4.6750   -7.2375    0.0000 C   0  0  0  0  0  0  0  0  0  0  0  0
    5.2875   -6.8792    0.0000 C   0  0  0  0  0  0  0  0  0  0  0  0
    4.0625   -6.8792    0.0000 C   0  0  0  0  0  0  0  0  0  0  0  0
    5.2875   -6.1750    0.0000 O   0  0  0  0  0  0  0  0  0  0  0  0
    5.0292   -7.8542    0.0000 N   0  0  0  0  0  0  0  0  0  0  0  0
    3.4417   -7.2292    0.0000 C   0  0  0  0  0  0  0  0  0  0  0  0
    5.9042   -7.2375    0.0000 O   0  0  0  0  0  0  0  0  0  0  0  0
    2.2167   -7.9417    0.0000 C   0  0  0  0  0  0  0  0  0  0  0  0
    3.4417   -7.9417    0.0000 C   0  0  0  0  0  0  0  0  0  0  0  0
    2.8292   -6.8792    0.0000 C   0  0  0  0  0  0  0  0  0  0  0  0
    2.8292   -8.2917    0.0000 C   0  0  0  0  0  0  0  0  0  0  0  0
    2.2167   -7.2292    0.0000 C   0  0  0  0  0  0  0  0  0  0  0  0
    1.6042   -8.2917    0.0000 O   0  0  0  0  0  0  0  0  0  0  0  0
    4.3167   -7.8542    0.0000 C   0  0  0  0  0  0  0  0  0  0  0  0
  2  1  1  0
  3  1  1  0
  4  2  2  0
  1  5  1  1
  6  3  1  0
  7  2  1  0
  8 12  2  0
  9  6  1  0
 10  6  2  0
 11  9  2  0
 12 10  1  0
 13  8  1  0
 14  1  1  0
  8 11  1  0
M  END
> <chembl_id>
CHEMBL1200862

> <chembl_pref_name>
METYROSINE

$$$$

     RDKit          2D

 16 16  0  0  0  0  0  0  0  0999 V2000
    7.7042   -5.3417    0.0000 Cl  0  0  0  0  0  0  0  0  0  0  0  0
    4.5667   -4.8042    0.0000 C   0  0  0  0  0  0  0  0  0  0  0  0
    3.3667   -4.8667    0.0000 C   0  0  0  0  0  0  0  0  0  0  0  0
    3.9542   -4.4542    0.0000 N   0  0  0  0  0  0  0  0  0  0  0  0
    5.1875   -4.4542    0.0000 C   0  0  0  0  0  0  0  0  0  0  0  0
    4.5667   -5.5167    0.0000 C   0  0  0  0  0  0  0  0  0  0  0  0
    5.1875   -5.8917    0.0000 C   0  0  0  0  0  0  0  0  0  0  0  0
    5.7917   -4.8042    0.0000 C   0  0  0  0  0  0  0  0  0  0  0  0
    2.7875   -4.4875    0.0000 N   0  0  0  0  0  0  0  0  0  0  0  0
    3.1542   -5.5667    0.0000 N   0  0  0  0  0  0  0  0  0  0  0  0
    5.7917   -5.5167    0.0000 C   0  0  0  0  0  0  0  0  0  0  0  0
    5.1875   -3.7542    0.0000 Cl  0  0  0  0  0  0  0  0  0  0  0  0
    3.9542   -5.8917    0.0000 Cl  0  0  0  0  0  0  0  0  0  0  0  0
    6.4167   -5.8917    0.0000 N   0  0  0  0  0  0  0  0  0  0  0  0
    2.2167   -4.8667    0.0000 C   0  0  0  0  0  0  0  0  0  0  0  0
    2.4292   -5.5667    0.0000 C   0  0  0  0  0  0  0  0  0  0  0  0
  3  4  2  0
  4  2  1  0
  5  2  2  0
  6  2  1  0
  7  6  2  0
  8  5  1  0
  9  3  1  0
 10  3  1  0
 11  7  1  0
 12  5  1  0
 13  6  1  0
 14 11  1  0
 15  9  1  0
 16 10  1  0
 11  8  2  0
 16 15  1  0
M  END
> <chembl_id>
CHEMBL1200379

> <chembl_pref_name>
APRACLONIDINE HYDROCHLORIDE

$$$$

     RDKit          2D

 13 13  0  0  0  0  0  0  0  0999 V2000
    2.8250   -6.2292    0.0000 C   0  0  0  0  0  0  0  0  0  0  0  0
    3.4417   -5.8792    0.0000 O   0  0  0  0  0  0  0  0  0  0  0  0
    2.8250   -6.9375    0.0000 C   0  0  0  0  0  0  0  0  0  0  0  0
    2.1792   -5.8792    0.0000 C   0  0  0  0  0  0  0  0  0  0  0  0
    4.0625   -6.2667    0.0000 C   0  0  0  0  0  0  0  0  0  0  0  0
    4.6750   -5.2250    0.0000 N   0  0  0  0  0  0  0  0  0  0  0  0
    4.6750   -5.8792    0.0000 C   0  0  0  0  0  0  0  0  0  0  0  0
    1.5792   -6.9375    0.0000 C   0  0  0  0  0  0  0  0  0  0  0  0
    2.1792   -7.2792    0.0000 C   0  0  0  0  0  0  0  0  0  0  0  0
    1.5792   -6.2292    0.0000 C   0  0  0  0  0  0  0  0  0  0  0  0
    3.4417   -7.2792    0.0000 C   0  0  0  0  0  0  0  0  0  0  0  0
    2.1750   -5.1667    0.0000 C   0  0  0  0  0  0  0  0  0  0  0  0
    5.2792   -6.2292    0.0000 C   0  0  0  0  0  0  0  0  0  0  0  0
  2  1  1  0
  3  1  2  0
  4  1  1  0
  5  2  1  0
  6  7  1  0
  7  5  1  0
  8 10  1  0
  9  3  1  0
 10  4  2  0
 11  3  1  0
 12  4  1  0
 13  7  1  0
  8  9  2  0
M  END
> <chembl_id>
CHEMBL558

> <chembl_pref_name>
MEXILETINE

$$$$

     RDKit          2D

 20 21  0  0  0  0  0  0  0  0999 V2000
   -0.9958   -0.5500    0.0000 C   0  0  0  0  0  0  0  0  0  0  0  0
   -2.0583   -1.1250    0.0000 C   0  0  0  0  0  0  0  0  0  0  0  0
    0.0000   -1.1250    0.0000 C   0  0  0  0  0  0  0  0  0  0  0  0
    1.0542   -0.5167    0.0000 C   0  0  0  0  0  0  0  0  0  0  0  0
   -3.0583   -0.5167    0.0000 C   0  0  0  0  0  0  0  0  0  0  0  0
    3.0792    0.6125    0.0000 C   0  0  0  0  0  0  0  0  0  0  0  0
    3.0917   -0.5500    0.0000 C   0  0  0  0  0  0  0  0  0  0  0  0
    2.0542    1.2625    0.0000 C   0  0  0  0  0  0  0  0  0  0  0  0
    1.0542    0.6583    0.0000 C   0  0  0  0  0  0  0  0  0  0  0  0
    2.0542   -1.1250    0.0000 C   0  0  0  0  0  0  0  0  0  0  0  0
   -1.0125    0.6125    0.0000 C   0  0  0  0  0  0  0  0  0  0  0  0
   -3.0583    0.6583    0.0000 C   0  0  0  0  0  0  0  0  0  0  0  0
    0.0000   -2.3375    0.0000 O   0  0  0  0  0  0  0  0  0  0  0  0
   -1.9958    1.2333    0.0000 C   0  0  0  0  0  0  0  0  0  0  0  0
   -2.0583   -2.2792    0.0000 O   0  0  0  0  0  0  0  0  0  0  0  0
   -4.0833   -1.1250    0.0000 O   0  0  0  0  0  0  0  0  0  0  0  0
    4.2125    1.1750    0.0000 O   0  0  0  0  0  0  0  0  0  0  0  0
    2.0542    2.4458    0.0000 O   0  0  0  0  0  0  0  0  0  0  0  0
    4.1542   -1.1542    0.0000 O   0  0  0  0  0  0  0  0  0  0  0  0
   -4.1208    1.2625    0.0000 O   0  0  0  0  0  0  0  0  0  0  0  0
  2  1  1  0
  3  1  1  0
  4  3  1  0
  5  2  2  0
  6  7  2  0
  7 10  1  0
  8  9  2  0
  9  4  1  0
 10  4  2  0
 11  1  2  0
 12 14  2  0
 13  3  2  0
 14 11  1  0
 15  2  1  0
 16  5  1  0
 17  6  1  0
 18  8  1  0
 19  7  1  0
 20 12  1  0
  5 12  1  0
  8  6  1  0
M  END
> <chembl_id>
CHEMBL329522

> <chembl_pref_name>
EXIFONE

$$$$

     RDKit          2D

 18 19  0  0  0  0  0  0  0  0999 V2000
    6.7500   -5.5875    0.0000 C   0  0  0  0  0  0  0  0  0  0  0  0
    6.7542   -6.3000    0.0000 C   0  0  0  0  0  0  0  0  0  0  0  0
    7.9875   -5.5875    0.0000 N   0  0  0  0  0  0  0  0  0  0  0  0
    7.3667   -5.2500    0.0000 C   0  0  0  0  0  0  0  0  0  0  0  0
    6.1417   -5.2500    0.0000 C   0  0  0  0  0  0  0  0  0  0  0  0
    6.1417   -6.6542    0.0000 C   0  0  0  0  0  0  0  0  0  0  0  0
    6.1417   -7.3667    0.0000 N   0  0  0  0  0  0  0  0  0  0  0  0
    8.6000   -5.2292    0.0000 C   0  0  0  0  0  0  0  0  0  0  0  0
    7.3667   -4.5375    0.0000 C   0  0  0  0  0  0  0  0  0  0  0  0
    5.5292   -5.6042    0.0000 C   0  0  0  0  0  0  0  0  0  0  0  0
    6.1417   -4.5375    0.0000 C   0  0  0  0  0  0  0  0  0  0  0  0
    6.7542   -7.7250    0.0000 C   0  0  0  0  0  0  0  0  0  0  0  0
    5.5417   -7.7167    0.0000 C   0  0  0  0  0  0  0  0  0  0  0  0
    8.6042   -4.5292    0.0000 C   0  0  0  0  0  0  0  0  0  0  0  0
    4.9125   -5.2500    0.0000 C   0  0  0  0  0  0  0  0  0  0  0  0
    7.9875   -4.1750    0.0000 C   0  0  0  0  0  0  0  0  0  0  0  0
    5.5250   -4.1792    0.0000 C   0  0  0  0  0  0  0  0  0  0  0  0
    4.9042   -4.5417    0.0000 C   0  0  0  0  0  0  0  0  0  0  0  0
  2  1  1  0
  3  4  2  0
  4  1  1  0
  5  1  1  0
  6  2  1  0
  7  6  1  0
  8  3  1  0
  9  4  1  0
 10  5  1  0
 11  5  2  0
 12  7  1  0
 13  7  1  0
 14 16  1  0
 15 10  2  0
 16  9  2  0
 17 11  1  0
 18 17  2  0
 18 15  1  0
 14  8  2  0
M  END
> <chembl_id>
CHEMBL1193

> <chembl_pref_name>
PHENIRAMINE

$$$$

     RDKit          2D

 20 21  0  0  0  0  0  0  0  0999 V2000
    0.7167   -1.6542    0.0000 N   0  0  0  0  0  0  0  0  0  0  0  0
    0.7167   -2.3667    0.0000 C   0  0  0  0  0  0  0  0  0  0  0  0
    0.1000   -1.3042    0.0000 C   0  0  0  0  0  0  0  0  0  0  0  0
    0.1000   -0.5917    0.0000 C   0  0  0  0  0  0  0  0  0  0  0  0
    1.3250   -0.5875    0.0000 C   0  0  0  0  0  0  0  0  0  0  0  0
    0.7125   -0.2292    0.0000 C   0  0  0  0  0  0  0  0  0  0  0  0
    0.1042   -2.7167    0.0000 C   0  0  0  0  0  0  0  0  0  0  0  0
    1.3292   -2.7125    0.0000 C   0  0  0  0  0  0  0  0  0  0  0  0
   -0.5125   -0.2375    0.0000 C   0  0  0  0  0  0  0  0  0  0  0  0
    1.3292   -1.2917    0.0000 O   0  0  0  0  0  0  0  0  0  0  0  0
   -0.5125   -1.6542    0.0000 C   0  0  0  0  0  0  0  0  0  0  0  0
   -1.1250   -0.5917    0.0000 C   0  0  0  0  0  0  0  0  0  0  0  0
    1.9417   -2.3542    0.0000 Cl  0  0  0  0  0  0  0  0  0  0  0  0
   -0.5083   -2.3667    0.0000 F   0  0  0  0  0  0  0  0  0  0  0  0
    1.9375   -0.2292    0.0000 O   0  0  0  0  0  0  0  0  0  0  0  0
   -1.1250   -1.3042    0.0000 C   0  0  0  0  0  0  0  0  0  0  0  0
    0.7167   -3.7792    0.0000 C   0  0  0  0  0  0  0  0  0  0  0  0
    1.3292   -3.4167    0.0000 C   0  0  0  0  0  0  0  0  0  0  0  0
    0.1042   -3.4292    0.0000 C   0  0  0  0  0  0  0  0  0  0  0  0
   -1.7375   -0.2375    0.0000 C   0  0  0  0  0  0  0  0  0  0  0  0
  2  1  1  0
  3  1  1  0
  4  3  1  0
  5  6  1  0
  6  4  1  0
  7  2  2  0
  8  2  1  0
  9  4  2  0
 10  5  2  0
 11  3  2  0
 12 16  2  0
 13  8  1  0
 14  7  1  0
 15  5  1  0
 16 11  1  0
 17 18  1  0
 18  8  2  0
 19  7  1  0
 20 12  1  0
 17 19  2  0
 12  9  1  0
M  END
> <chembl_id>
CHEMBL404108

> <chembl_pref_name>
LUMIRACOXIB

$$$$

     RDKit          2D

 20 22  0  0  0  0  0  0  0  0999 V2000
    4.1315   -4.9621    0.0000 C   0  0  0  0  0  0  0  0  0  0  0  0
    4.1315   -5.6802    0.0000 C   0  0  0  0  0  0  0  0  0  0  0  0
    4.7986   -4.7650    0.0000 C   0  0  0  0  0  0  0  0  0  0  0  0
    3.5139   -4.6057    0.0000 C   0  0  0  0  0  0  0  0  0  0  0  0
    4.8089   -5.9111    0.0000 N   0  0  0  0  0  0  0  0  0  0  0  0
    3.5139   -6.0434    0.0000 C   0  0  0  0  0  0  0  0  0  0  0  0
    5.2163   -5.3012    0.0000 C   0  0  0  0  0  0  0  0  0  0  0  0
    4.7986   -4.0434    0.0000 C   0  0  0  0  0  0  0  0  0  0  0  0
    2.9040   -4.9621    0.0000 C   0  0  0  0  0  0  0  0  0  0  0  0
    2.9040   -5.6802    0.0000 C   0  0  0  0  0  0  0  0  0  0  0  0
    5.4023   -3.7009    0.0000 C   0  0  0  0  0  0  0  0  0  0  0  0
    2.2872   -4.6057    0.0000 C   0  0  0  0  0  0  0  0  0  0  0  0
    6.0260   -4.0434    0.0000 N   0  0  0  0  0  0  0  0  0  0  0  0
    1.6732   -4.9717    0.0000 N   0  0  0  0  0  0  0  0  0  0  0  0
    6.6228   -3.6871    0.0000 C   0  0  0  0  0  0  0  0  0  0  0  0
    6.0260   -4.7650    0.0000 C   0  0  0  0  0  0  0  0  0  0  0  0
    1.0935   -4.5720    0.0000 C   0  0  0  0  0  0  0  0  0  0  0  0
    1.4533   -5.6637    0.0000 N   0  0  0  0  0  0  0  0  0  0  0  0
    0.5242   -4.9717    0.0000 N   0  0  0  0  0  0  0  0  0  0  0  0
    0.7414   -5.6637    0.0000 C   0  0  0  0  0  0  0  0  0  0  0  0
 14 17  1  0
 14 18  1  0
 17 19  2  0
 18 20  2  0
  5  7  1  0
  9 10  1  0
 19 20  1  0
  1  2  2  0
  1  3  1  0
  1  4  1  0
  2  5  1  0
  2  6  1  0
  3  7  2  0
  3  8  1  0
  4  9  2  0
  6 10  2  0
  8 11  1  0
  9 12  1  0
 11 13  1  0
 12 14  1  0
 13 15  1  0
 13 16  1  0
M  END
> <chembl_id>
CHEMBL905

> <chembl_pref_name>
RIZATRIPTAN

$$$$

     RDKit          2D

  4  3  0  0  0  0  0  0  0  0999 V2000
   -0.1083   -0.3042    0.0000 C   0  0  0  0  0  0  0  0  0  0  0  0
    1.1375   -1.0250    0.0000 Cl  0  0  0  0  0  0  0  0  0  0  0  0
   -1.3458   -1.0250    0.0000 Cl  0  0  0  0  0  0  0  0  0  0  0  0
   -0.1083    1.1208    0.0000 Cl  0  0  0  0  0  0  0  0  0  0  0  0
  2  1  1  0
  3  1  1  0
  4  1  1  0
M  END
> <chembl_id>
CHEMBL44618

> <chembl_pref_name>
CHLOROFORM

$$$$

     RDKit          2D

 13 11  0  0  0  0  0  0  0  0999 V2000
    5.3005   -7.5882    0.0000 C   0  0  0  0  0  0  0  0  0  0  0  0
    5.2963   -6.7631    0.0000 O   0  0  0  0  0  0  0  0  0  0  0  0
    4.7129   -8.1716    0.0000 O   0  0  0  0  0  0  0  0  0  0  0  0
    6.0131   -8.0008    0.0000 O   0  0  0  0  0  0  0  0  0  0  0  0
    2.7211   -6.1923    0.0000 N   0  0  0  0  0  0  0  0  0  0  0  0
    3.4336   -5.7755    0.0000 C   0  0  0  0  0  0  0  0  0  0  0  0
    4.1505   -6.1841    0.0000 C   0  0  0  0  0  0  0  0  0  0  0  0
    4.8628   -5.7675    0.0000 C   0  0  0  0  0  0  0  0  0  0  0  0
    6.9674   -5.7213    0.0000 Cl  0  0  0  0  0  0  0  0  0  0  0  0
    7.6799   -6.1339    0.0000 C   0  0  0  0  0  0  0  0  0  0  0  0
    8.3949   -5.7222    0.0000 C   0  0  0  0  0  0  0  0  0  0  0  0
    9.2173   -5.7222    0.0000 O   0  0  0  0  0  0  0  0  0  0  0  0
    8.8056   -5.0073    0.0000 C   0  0  0  0  0  0  0  0  0  0  0  0
  1  2  2  0
  1  3  1  0
  1  4  1  0
  6  7  1  0
  7  8  2  0
  5  6  1  0
 10 11  1  0
 12 11  1  0
 13 12  1  0
 11 13  1  0
  9 10  1  0
M  END
> <chembl_id>
CHEMBL1201799

> <chembl_pref_name>
SEVELAMER CARBONATE

$$$$

     RDKit          2D

 20 21  0  0  0  0  0  0  0  0999 V2000
    0.5167   -4.8833    0.0000 S   0  0  0  0  0  0  0  0  0  0  0  0
    1.7417   -5.5917    0.0000 N   0  0  0  0  0  0  0  0  0  0  0  0
    2.3667   -5.9542    0.0000 C   0  0  0  0  0  0  0  0  0  0  0  0
    1.1292   -4.5292    0.0000 N   0  0  0  0  0  0  0  0  0  0  0  0
    1.7500   -4.8792    0.0000 C   0  0  0  0  0  0  0  0  0  0  0  0
    2.9542   -5.6125    0.0000 N   0  0  0  0  0  0  0  0  0  0  0  0
    2.3667   -4.5167    0.0000 C   0  0  0  0  0  0  0  0  0  0  0  0
    2.9750   -4.9167    0.0000 C   0  0  0  0  0  0  0  0  0  0  0  0
   -0.0958   -4.5292    0.0000 C   0  0  0  0  0  0  0  0  0  0  0  0
    0.8667   -5.4917    0.0000 O   0  0  0  0  0  0  0  0  0  0  0  0
    0.1542   -5.4917    0.0000 O   0  0  0  0  0  0  0  0  0  0  0  0
    2.3917   -6.6750    0.0000 O   0  0  0  0  0  0  0  0  0  0  0  0
   -0.0917   -3.8250    0.0000 C   0  0  0  0  0  0  0  0  0  0  0  0
   -0.7000   -4.8875    0.0000 C   0  0  0  0  0  0  0  0  0  0  0  0
   -1.3208   -3.8250    0.0000 C   0  0  0  0  0  0  0  0  0  0  0  0
   -1.9333   -3.4750    0.0000 N   0  0  0  0  0  0  0  0  0  0  0  0
   -0.7083   -3.4708    0.0000 C   0  0  0  0  0  0  0  0  0  0  0  0
   -1.3167   -4.5375    0.0000 C   0  0  0  0  0  0  0  0  0  0  0  0
    3.5792   -6.0125    0.0000 C   0  0  0  0  0  0  0  0  0  0  0  0
    4.2125   -5.7000    0.0000 C   0  0  0  0  0  0  0  0  0  0  0  0
  2  5  2  0
  3  2  1  0
  4  1  1  0
  5  4  1  0
  6  8  1  0
  7  5  1  0
  8  7  2  0
  9  1  1  0
 10  1  2  0
 11  1  2  0
 12  3  2  0
 13  9  2  0
 14  9  1  0
 15 18  1  0
 16 15  1  0
 17 13  1  0
 18 14  2  0
 19  6  1  0
 20 19  1  0
 15 17  2  0
  6  3  1  0
M  END
> <chembl_id>
CHEMBL1201056

> <chembl_pref_name>
SULFACYTINE

$$$$

     RDKit          2D

 19 19  0  0  0  0  0  0  0  0999 V2000
    6.3757   -3.1607    0.0000 P   0  0  0  0  0  0  0  0  0  0  0  0
    4.9394   -5.6409    0.0000 C   0  0  0  0  0  0  0  0  0  0  0  0
    4.2254   -6.0542    0.0000 C   0  0  0  0  0  0  0  0  0  0  0  0
    5.6534   -6.0542    0.0000 C   0  0  0  0  0  0  0  0  0  0  0  0
    5.6617   -3.5741    0.0000 O   0  0  0  0  0  0  0  0  0  0  0  0
    7.0897   -3.5741    0.0000 O   0  0  0  0  0  0  0  0  0  0  0  0
    5.6534   -4.4008    0.0000 C   0  0  0  0  0  0  0  0  0  0  0  0
    4.9394   -4.8142    0.0000 O   0  0  0  0  0  0  0  0  0  0  0  0
    6.3757   -2.3340    0.0000 O   0  0  0  0  0  0  0  0  0  0  0  0
    7.0939   -2.7474    0.0000 O   0  0  0  0  0  0  0  0  0  0  0  0
    6.3757   -5.6409    0.0000 C   0  0  0  0  0  0  0  0  0  0  0  0
    3.5115   -5.6409    0.0000 C   0  0  0  0  0  0  0  0  0  0  0  0
    5.6534   -6.8809    0.0000 C   0  0  0  0  0  0  0  0  0  0  0  0
    4.2254   -6.8809    0.0000 C   0  0  0  0  0  0  0  0  0  0  0  0
    4.9394   -7.2943    0.0000 C   0  0  0  0  0  0  0  0  0  0  0  0
    7.0897   -6.0542    0.0000 C   0  0  0  0  0  0  0  0  0  0  0  0
    3.5115   -4.8142    0.0000 C   0  0  0  0  0  0  0  0  0  0  0  0
    2.7975   -6.0542    0.0000 C   0  0  0  0  0  0  0  0  0  0  0  0
    6.3757   -4.8142    0.0000 C   0  0  0  0  0  0  0  0  0  0  0  0
  2  8  1  0
  3  2  1  0
  4  2  2  0
  5  1  1  0
  6  1  2  0
  7  5  1  0
  8  7  1  0
  9  1  1  0
 10  1  1  0
 11  4  1  0
 12  3  1  0
 13  4  1  0
 14  3  2  0
 15 13  2  0
 16 11  1  0
 17 12  1  0
 18 12  1  0
 19 11  1  0
 14 15  1  0
M  END
> <chembl_id>
CHEMBL1201766

> <chembl_pref_name>
FOSPROPOFOL

$$$$

     RDKit          2D

 15 15  0  0  0  0  0  0  0  0999 V2000
   -1.3958   -2.2000    0.0000 N   0  0  0  0  0  0  0  0  0  0  0  0
   -2.6500   -0.0250    0.0000 N   0  0  0  0  0  0  0  0  0  0  0  0
   -0.1458   -0.0417    0.0000 C   0  0  0  0  0  0  0  0  0  0  0  0
   -0.1458   -1.4917    0.0000 C   0  0  0  0  0  0  0  0  0  0  0  0
   -1.3958    0.6875    0.0000 C   0  0  0  0  0  0  0  0  0  0  0  0
   -2.6500   -1.4375    0.0000 C   0  0  0  0  0  0  0  0  0  0  0  0
   -1.3958    2.1250    0.0000 O   0  0  0  0  0  0  0  0  0  0  0  0
    1.1125   -2.2167    0.0000 O   0  0  0  0  0  0  0  0  0  0  0  0
   -3.9625   -2.1667    0.0000 O   0  0  0  0  0  0  0  0  0  0  0  0
    1.3167   -0.0500    0.0000 C   0  0  0  0  0  0  0  0  0  0  0  0
    0.4917    1.2833    0.0000 C   0  0  0  0  0  0  0  0  0  0  0  0
    1.8375    1.2833    0.0000 C   0  0  0  0  0  0  0  0  0  0  0  0
    2.0667   -0.9500    0.0000 C   0  0  0  0  0  0  0  0  0  0  0  0
    2.5750    2.4875    0.0000 C   0  0  0  0  0  0  0  0  0  0  0  0
    4.1375    2.4458    0.0000 C   0  0  0  0  0  0  0  0  0  0  0  0
  2  6  1  0
  3  4  1  0
  4  1  1  0
  5  2  1  0
  6  1  1  0
  7  5  2  0
  8  4  2  0
  9  6  2  0
 10  3  1  0
 11  3  1  0
 12 11  1  0
 13 10  1  0
 14 12  1  0
 15 14  1  0
  3  5  1  0
M  END
> <chembl_id>
CHEMBL404422

> <chembl_pref_name>
BUTETHAL

$$$$

     RDKit          2D

 13 13  0  0  0  0  0  0  0  0999 V2000
    5.0750   -6.5917    0.0000 C   0  0  0  0  0  0  0  0  0  0  0  0
    4.4542   -6.2417    0.0000 C   0  0  0  0  0  0  0  0  0  0  0  0
    5.6875   -6.2417    0.0000 C   0  0  0  0  0  0  0  0  0  0  0  0
    5.0750   -7.3125    0.0000 O   0  0  0  0  0  0  0  0  0  0  0  0
    3.8417   -6.5917    0.0000 C   0  0  0  0  0  0  0  0  0  0  0  0
    6.3042   -6.5917    0.0000 C   0  0  0  0  0  0  0  0  0  0  0  0
    4.4542   -5.5375    0.0000 C   0  0  0  0  0  0  0  0  0  0  0  0
    5.6875   -5.5375    0.0000 C   0  0  0  0  0  0  0  0  0  0  0  0
    5.0750   -5.1792    0.0000 C   0  0  0  0  0  0  0  0  0  0  0  0
    3.2250   -6.2417    0.0000 C   0  0  0  0  0  0  0  0  0  0  0  0
    3.8417   -7.3125    0.0000 C   0  0  0  0  0  0  0  0  0  0  0  0
    6.9167   -6.2417    0.0000 C   0  0  0  0  0  0  0  0  0  0  0  0
    6.3042   -7.3125    0.0000 C   0  0  0  0  0  0  0  0  0  0  0  0
  2  1  2  0
  3  1  1  0
  4  1  1  0
  5  2  1  0
  6  3  1  0
  7  2  1  0
  8  3  2  0
  9  8  1  0
 10  5  1  0
 11  5  1  0
 12  6  1  0
 13  6  1  0
  9  7  2  0
M  END
> <chembl_id>
CHEMBL526

> <chembl_pref_name>
PROPOFOL

$$$$

     RDKit          2D

  6  6  0  0  0  0  0  0  0  0999 V2000
    4.2750   -4.2917    0.0000 N   0  0  0  0  0  0  0  0  0  0  0  0
    4.8500   -3.9000    0.0000 N   0  0  0  0  0  0  0  0  0  0  0  0
    5.1792   -5.0000    0.0000 C   0  0  0  0  0  0  0  0  0  0  0  0
    5.4167   -4.3375    0.0000 C   0  0  0  0  0  0  0  0  0  0  0  0
    4.4792   -4.9792    0.0000 C   0  0  0  0  0  0  0  0  0  0  0  0
    5.5792   -5.5917    0.0000 C   0  0  0  0  0  0  0  0  0  0  0  0
  2  1  1  0
  3  5  1  0
  4  2  1  0
  5  1  2  0
  6  3  1  0
  4  3  2  0
M  END
> <chembl_id>
CHEMBL1308

> <chembl_pref_name>
FOMEPIZOLE

$$$$

     RDKit          2D

 25 29  0  0  1  0  0  0  0  0999 V2000
    2.6799   -9.0112    0.0000 C   0  0  0  0  0  0  0  0  0  0  0  0
    1.8501   -9.0209    0.0000 C   0  0  0  0  0  0  0  0  0  0  0  0
    3.0949   -8.3033    0.0000 C   0  0  0  0  0  0  0  0  0  0  0  0
    1.4401   -9.7287    0.0000 C   0  0  0  0  0  0  0  0  0  0  0  0
    3.0802   -9.7287    0.0000 C   0  0  0  0  0  0  0  0  0  0  0  0
    2.2309  -10.1485    0.0000 O   0  0  0  0  0  0  0  0  0  0  0  0
    2.6848   -7.5907    0.0000 C   0  0  0  0  0  0  0  0  0  0  0  0
    1.4401   -8.3033    0.0000 C   0  0  0  0  0  0  0  0  0  0  0  0
    3.9149   -8.3082    0.0000 C   0  0  0  0  0  0  0  0  0  0  0  0
    1.8501   -7.5857    0.0000 C   0  0  0  0  0  0  0  0  0  0  0  0
    3.0949   -6.8731    0.0000 N   0  0  0  0  0  0  0  0  0  0  0  0
    2.2601   -8.4254    0.0000 C   0  0  0  0  0  0  0  0  0  0  0  0
    4.3250   -9.0258    0.0000 C   0  0  0  0  0  0  0  0  0  0  0  0
    3.9100   -9.7384    0.0000 C   0  0  0  0  0  0  0  0  0  0  0  0
    0.6151   -9.7287    0.0000 C   0  0  0  0  0  0  0  0  0  0  0  0
    2.2699   -6.8682    0.0000 C   0  0  0  0  0  0  0  0  0  0  0  0
    0.6151   -8.3033    0.0000 C   0  0  0  0  0  0  0  0  0  0  0  0
    0.2050   -9.0209    0.0000 C   0  0  0  0  0  0  0  0  0  0  0  0
    4.3201  -10.4609    0.0000 O   0  0  0  0  0  0  0  0  0  0  0  0
    0.1953  -10.4463    0.0000 O   0  0  0  0  0  0  0  0  0  0  0  0
    3.8222   -6.4581    0.0000 C   0  0  0  0  0  0  0  0  0  0  0  0
   -0.6297  -10.4463    0.0000 C   0  0  0  0  0  0  0  0  0  0  0  0
    2.1855   -6.7243    0.0000 H   0  0  0  0  0  0  0  0  0  0  0  0
    3.3020  -10.7038    0.0000 H   0  0  0  0  0  0  0  0  0  0  0  0
    3.5981   -7.4391    0.0000 H   0  0  0  0  0  0  0  0  0  0  0  0
  2  1  1  0
  3  1  1  0
  4  2  1  0
  5  1  1  0
  5  6  1  0
  7  3  1  0
  8  2  2  0
  9  3  1  0
 10  7  1  0
  7 11  1  0
  1 12  1  1
 13  9  2  0
 14  5  1  0
 15  4  2  0
 16 12  1  0
 17  8  1  0
 18 15  1  0
 14 19  1  6
 20 15  1  0
 21 11  1  0
 22 20  1  0
 16 11  1  0
 14 13  1  0
  6  4  1  0
 10  8  1  0
 17 18  2  0
  7 23  1  6
  5 24  1  1
  3 25  1  1
M  END
> <chembl_id>
CHEMBL485

> <chembl_pref_name>
CODEINE

$$$$

     RDKit          2D

 20 21  0  0  0  0  0  0  0  0999 V2000
    0.6375   -1.7792    0.0000 C   0  0  0  0  0  0  0  0  0  0  0  0
    1.6875   -1.1375    0.0000 S   0  0  0  0  0  0  0  0  0  0  0  0
   -0.4083   -1.1375    0.0000 C   0  0  0  0  0  0  0  0  0  0  0  0
   -0.4083    0.0625    0.0000 O   0  0  0  0  0  0  0  0  0  0  0  0
    0.6375    1.9083    0.0000 N   0  0  0  0  0  0  0  0  0  0  0  0
    0.6375   -2.9792    0.0000 C   0  0  0  0  0  0  0  0  0  0  0  0
    1.6875    2.5458    0.0000 C   0  0  0  0  0  0  0  0  0  0  0  0
   -1.4583    1.9083    0.0000 C   0  0  0  0  0  0  0  0  0  0  0  0
   -1.4583    0.6708    0.0000 C   0  0  0  0  0  0  0  0  0  0  0  0
   -0.4083    2.5208    0.0000 C   0  0  0  0  0  0  0  0  0  0  0  0
   -2.5083    2.5208    0.0000 O   0  0  0  0  0  0  0  0  0  0  0  0
   -1.4583   -2.9792    0.0000 C   0  0  0  0  0  0  0  0  0  0  0  0
    2.7375   -1.7792    0.0000 C   0  0  0  0  0  0  0  0  0  0  0  0
   -1.4583   -1.7792    0.0000 C   0  0  0  0  0  0  0  0  0  0  0  0
   -0.4083   -3.5875    0.0000 C   0  0  0  0  0  0  0  0  0  0  0  0
    1.6875   -3.5875    0.0000 C   0  0  0  0  0  0  0  0  0  0  0  0
    1.0500    3.5958    0.0000 C   0  0  0  0  0  0  0  0  0  0  0  0
    2.3167    1.4958    0.0000 C   0  0  0  0  0  0  0  0  0  0  0  0
    2.7375    3.1833    0.0000 C   0  0  0  0  0  0  0  0  0  0  0  0
    2.7375   -2.9792    0.0000 C   0  0  0  0  0  0  0  0  0  0  0  0
  2  1  1  0
  3  1  1  0
  4  3  1  0
  5 10  1  0
  6  1  2  0
  7  5  1  0
  8  9  1  0
  9  4  1  0
 10  8  1  0
 11  8  1  0
 12 15  2  0
 13  2  1  0
 14  3  2  0
 15  6  1  0
 16  6  1  0
 17  7  1  0
 18  7  1  0
 19  7  1  0
 20 16  1  0
 14 12  1  0
 13 20  1  0
M  END
> <chembl_id>
CHEMBL434200

> <chembl_pref_name>
TERTATOLOL

$$$$

     RDKit          2D

 13 13  0  0  0  0  0  0  0  0999 V2000
    6.7474    3.4605    0.0000 Cl  0  0  0  0  0  0  0  0  0  0  0  0
    4.5036    4.1565    0.0000 C   0  0  0  0  0  0  0  0  0  0  0  0
    4.0911    4.8709    0.0000 C   0  0  0  0  0  0  0  0  0  0  0  0
    3.2661    4.8709    0.0000 C   0  0  0  0  0  0  0  0  0  0  0  0
    2.8536    4.1565    0.0000 C   0  0  0  0  0  0  0  0  0  0  0  0
    3.2661    3.4420    0.0000 C   0  0  0  0  0  0  0  0  0  0  0  0
    4.0911    3.4420    0.0000 C   0  0  0  0  0  0  0  0  0  0  0  0
    5.2181    4.5690    0.0000 C   0  0  0  0  0  0  0  0  0  0  0  0
    5.3005    3.9429    0.0000 C   0  0  0  0  0  0  0  0  0  0  0  0
    3.8776    2.6451    0.0000 C   0  0  0  0  0  0  0  0  0  0  0  0
    4.8056    3.0295    0.0000 N   0  0  0  0  0  0  0  0  0  0  0  0
    4.8056    2.2045    0.0000 C   0  0  0  0  0  0  0  0  0  0  0  0
    3.4796    4.2389    0.0000 C   0  0  0  0  0  0  0  0  0  0  0  0
  2  3  1  0
  3  4  1  0
  4  5  1  0
  5  6  1  0
  6  7  1  0
  7  2  1  0
  2  8  1  0
  2  9  1  0
  7 10  1  0
  7 11  1  0
 11 12  1  0
  6 13  1  0
  3 13  1  0
M  END
> <chembl_id>
CHEMBL1237082

> <chembl_pref_name>
MECAMYLAMINE HYDROCHLORIDE

$$$$

     RDKit          2D

  5  3  0  0  0  0  0  0  0  0999 V2000
    8.3000   -6.4125    0.0000 Ag  0  0  0  0  0 15  0  0  0  0  0  0
    8.9792   -5.3417    0.0000 N   0  0  0  0  0  0  0  0  0  0  0  0
    9.3917   -4.6292    0.0000 O   0  0  0  0  0  0  0  0  0  0  0  0
    8.1542   -5.3417    0.0000 O   0  0  0  0  0  0  0  0  0  0  0  0
    9.3917   -6.0625    0.0000 O   0  0  0  0  0  0  0  0  0  0  0  0
  3  2  1  0
  4  2  1  0
  5  2  2  0
M  CHG  4   1   1   2   1   3  -1   4  -1
M  END
> <chembl_id>
CHEMBL177367

> <chembl_pref_name>
SILVER NITRATE

$$$$

     RDKit          2D

  5  3  0  0  0  0  0  0  0  0999 V2000
    0.0167    1.0625    0.0000 Cl  0  0  0  0  0  0  0  0  0  0  0  0
    1.9292   -0.9250    0.0000 S   0  0  0  0  0  0  0  0  0  0  0  0
   -1.8583   -0.6625    0.0000 N   0  0  0  0  0  0  0  0  0  0  0  0
    0.6042   -0.3667    0.0000 C   0  0  0  0  0  0  0  0  0  0  0  0
   -0.5333   -1.2250    0.0000 C   0  0  0  0  0  0  0  0  0  0  0  0
  3  5  1  0
  4  2  1  0
  5  4  1  0
M  END
> <chembl_id>
CHEMBL1256137

> <chembl_pref_name>
CYSTEAMINE HYDROCHLORIDE

$$$$

     RDKit          2D

 20 21  0  0  0  0  0  0  0  0999 V2000
    5.2542   -5.4417    0.0000 C   0  0  0  0  0  0  0  0  0  0  0  0
    6.3917   -5.4375    0.0000 C   0  0  0  0  0  0  0  0  0  0  0  0
    5.8292   -5.8500    0.0000 N   0  0  0  0  0  0  0  0  0  0  0  0
    5.4750   -4.7667    0.0000 C   0  0  0  0  0  0  0  0  0  0  0  0
    6.1792   -4.7667    0.0000 C   0  0  0  0  0  0  0  0  0  0  0  0
    4.5917   -5.6750    0.0000 C   0  0  0  0  0  0  0  0  0  0  0  0
    7.0542   -5.6500    0.0000 C   0  0  0  0  0  0  0  0  0  0  0  0
    7.2000   -6.3417    0.0000 C   0  0  0  0  0  0  0  0  0  0  0  0
    4.0625   -5.2000    0.0000 C   0  0  0  0  0  0  0  0  0  0  0  0
    4.4500   -6.3792    0.0000 O   0  0  0  0  0  0  0  0  0  0  0  0
    7.8667   -6.5042    0.0000 O   0  0  0  0  0  0  0  0  0  0  0  0
    6.6625   -6.8375    0.0000 O   0  0  0  0  0  0  0  0  0  0  0  0
    3.3792   -5.4250    0.0000 C   0  0  0  0  0  0  0  0  0  0  0  0
    4.2000   -4.4917    0.0000 C   0  0  0  0  0  0  0  0  0  0  0  0
    5.8292   -6.5500    0.0000 C   0  0  0  0  0  0  0  0  0  0  0  0
    2.9750   -4.2417    0.0000 C   0  0  0  0  0  0  0  0  0  0  0  0
    5.0542   -4.2042    0.0000 C   0  0  0  0  0  0  0  0  0  0  0  0
    2.8417   -4.9542    0.0000 C   0  0  0  0  0  0  0  0  0  0  0  0
    3.6542   -4.0250    0.0000 C   0  0  0  0  0  0  0  0  0  0  0  0
    2.4417   -3.7792    0.0000 Cl  0  0  0  0  0  0  0  0  0  0  0  0
  2  3  1  0
  3  1  1  0
  4  1  2  0
  5  4  1  0
  6  1  1  0
  7  2  1  0
  8  7  1  0
  9  6  1  0
 10  6  2  0
 11  8  1  0
 12  8  2  0
 13  9  1  0
 14  9  2  0
 15  3  1  0
 16 19  2  0
 17  4  1  0
 18 13  2  0
 19 14  1  0
 20 16  1  0
  2  5  2  0
 16 18  1  0
M  END
> <chembl_id>
CHEMBL19490

> <chembl_pref_name>
ZOMEPIRAC

$$$$

     RDKit          2D

 17 18  0  0  0  0  0  0  0  0999 V2000
    0.5667   -0.7167    0.0000 C   0  0  0  0  0  0  0  0  0  0  0  0
    1.8042   -1.4292    0.0000 C   0  0  0  0  0  0  0  0  0  0  0  0
   -0.6708   -2.8792    0.0000 N   0  0  0  0  0  0  0  0  0  0  0  0
   -0.6708   -1.4500    0.0000 C   0  0  0  0  0  0  0  0  0  0  0  0
    0.5667    0.7208    0.0000 C   0  0  0  0  0  0  0  0  0  0  0  0
    1.8042   -2.8542    0.0000 O   0  0  0  0  0  0  0  0  0  0  0  0
    3.0417   -0.7167    0.0000 O   0  0  0  0  0  0  0  0  0  0  0  0
   -1.9125   -3.5917    0.0000 C   0  0  0  0  0  0  0  0  0  0  0  0
    1.8042    1.4375    0.0000 C   0  0  0  0  0  0  0  0  0  0  0  0
   -0.6708    1.4583    0.0000 C   0  0  0  0  0  0  0  0  0  0  0  0
   -1.9125   -0.7375    0.0000 C   0  0  0  0  0  0  0  0  0  0  0  0
    3.0417    0.7208    0.0000 C   0  0  0  0  0  0  0  0  0  0  0  0
   -3.1500   -2.8792    0.0000 C   0  0  0  0  0  0  0  0  0  0  0  0
   -0.6708    2.8833    0.0000 C   0  0  0  0  0  0  0  0  0  0  0  0
    1.8042    2.8833    0.0000 C   0  0  0  0  0  0  0  0  0  0  0  0
   -3.1500   -1.4667    0.0000 C   0  0  0  0  0  0  0  0  0  0  0  0
    0.5667    3.5958    0.0000 C   0  0  0  0  0  0  0  0  0  0  0  0
  2  1  1  0
  3  4  1  0
  4  1  1  0
  5  1  1  0
  6  2  2  0
  7  2  1  0
  8  3  1  0
  9  5  2  0
 10  5  1  0
 11  4  1  0
 12  7  1  0
 13 16  1  0
 14 10  2  0
 15  9  1  0
 16 11  1  0
 17 14  1  0
 15 17  2  0
  8 13  1  0
M  END
> <chembl_id>
CHEMBL796

> <chembl_pref_name>
METHYLPHENIDATE

$$$$

     RDKit          2D

 19 19  0  0  0  0  0  0  0  0999 V2000
    1.7375   -0.4250    0.0000 C   0  0  0  0  0  0  0  0  0  0  0  0
    2.8667    0.4208    0.0000 N   0  0  0  0  0  0  0  0  0  0  0  0
   -2.2750   -2.4917    0.0000 C   0  0  0  0  0  0  0  0  0  0  0  0
    3.6292   -1.7375    0.0000 N   0  0  0  0  0  0  0  0  0  0  0  0
   -1.1375   -3.3292    0.0000 O   0  0  0  0  0  0  0  0  0  0  0  0
   -0.4583   -1.1542    0.0000 C   0  0  0  0  0  0  0  0  0  0  0  0
    0.3792   -0.0167    0.0000 C   0  0  0  0  0  0  0  0  0  0  0  0
    4.0375   -0.4167    0.0000 C   0  0  0  0  0  0  0  0  0  0  0  0
   -1.8583   -1.1542    0.0000 C   0  0  0  0  0  0  0  0  0  0  0  0
    2.2042   -1.7542    0.0000 C   0  0  0  0  0  0  0  0  0  0  0  0
   -0.0250   -2.5250    0.0000 C   0  0  0  0  0  0  0  0  0  0  0  0
   -3.6208   -2.9292    0.0000 O   0  0  0  0  0  0  0  0  0  0  0  0
    2.8542    1.8333    0.0000 C   0  0  0  0  0  0  0  0  0  0  0  0
   -2.6958   -0.0167    0.0000 C   0  0  0  0  0  0  0  0  0  0  0  0
   -4.0458   -0.4250    0.0000 C   0  0  0  0  0  0  0  0  0  0  0  0
   -1.5958    2.2083    0.0000 N   0  0  0  0  0  0  0  0  0  0  0  0
   -0.8875    0.9833    0.0000 O   0  0  0  0  0  0  0  0  0  0  0  0
   -3.0083    2.2083    0.0000 O   0  0  0  0  0  0  0  0  0  0  0  0
   -0.8875    3.4333    0.0000 O   0  0  0  0  0  0  0  0  0  0  0  0
  2  1  1  0
  3  9  1  0
  4 10  1  0
  5 11  1  0
  6  7  1  1
  7  1  1  0
  8  2  1  0
  9  6  1  0
 10  1  2  0
 11  6  1  0
 12  3  2  0
 13  2  1  0
  9 14  1  1
 15 14  1  0
  8  4  2  0
  3  5  1  0
 17 16  1  0
 18 16  2  0
 19 16  1  0
M  CHG  2  16   1  17  -1
M  END
> <chembl_id>
CHEMBL1213136

> <chembl_pref_name>
PILOCARPINE NITRATE

$$$$

     RDKit          2D

 14 14  0  0  0  0  0  0  0  0999 V2000
    1.2417   -0.3417    0.0000 C   0  0  0  0  0  0  0  0  0  0  0  0
    0.0000   -1.0542    0.0000 C   0  0  0  0  0  0  0  0  0  0  0  0
    1.2417    1.0833    0.0000 N   0  0  0  0  0  0  0  0  0  0  0  0
    2.4792   -1.0542    0.0000 O   0  0  0  0  0  0  0  0  0  0  0  0
   -1.2458   -0.3417    0.0000 C   0  0  0  0  0  0  0  0  0  0  0  0
   -2.4750   -1.0542    0.0000 C   0  0  0  0  0  0  0  0  0  0  0  0
    0.0042   -2.4875    0.0000 C   0  0  0  0  0  0  0  0  0  0  0  0
   -1.2250   -3.2167    0.0000 C   0  0  0  0  0  0  0  0  0  0  0  0
    0.0000    1.8000    0.0000 C   0  0  0  0  0  0  0  0  0  0  0  0
    2.4792    1.8000    0.0000 C   0  0  0  0  0  0  0  0  0  0  0  0
   -2.4750   -2.4917    0.0000 C   0  0  0  0  0  0  0  0  0  0  0  0
   -3.7250   -0.3417    0.0000 C   0  0  0  0  0  0  0  0  0  0  0  0
    0.0000    3.2208    0.0000 C   0  0  0  0  0  0  0  0  0  0  0  0
    3.7167    1.0958    0.0000 C   0  0  0  0  0  0  0  0  0  0  0  0
  2  1  1  0
  3  1  1  0
  4  1  2  0
  5  2  2  0
  6  5  1  0
  7  2  1  0
  8  7  2  0
  9  3  1  0
 10  3  1  0
 11  8  1  0
 12  6  1  0
 13  9  1  0
 14 10  1  0
  6 11  2  0
M  END
> <chembl_id>
CHEMBL1453317

> <chembl_pref_name>
DIETHYLTOLUAMIDE

$$$$

     RDKit          2D

 22 23  0  0  0  0  0  0  0  0999 V2000
    4.3292   -0.5667    0.0000 N   0  0  0  0  0  0  0  0  0  0  0  0
    3.1917   -0.5625    0.0000 N   0  0  0  0  0  0  0  0  0  0  0  0
    3.4292   -1.2292    0.0000 N   0  0  0  0  0  0  0  0  0  0  0  0
    0.7375   -0.5375    0.0000 C   0  0  0  0  0  0  0  0  0  0  0  0
    1.3542   -1.5917    0.0000 C   0  0  0  0  0  0  0  0  0  0  0  0
    2.5750   -3.0292    0.0000 N   0  0  0  0  0  0  0  0  0  0  0  0
   -1.1125   -0.8917    0.0000 N   0  0  0  0  0  0  0  0  0  0  0  0
    4.1167   -1.2292    0.0000 C   0  0  0  0  0  0  0  0  0  0  0  0
    3.7750   -0.1917    0.0000 C   0  0  0  0  0  0  0  0  0  0  0  0
    0.7417   -1.2542    0.0000 C   0  0  0  0  0  0  0  0  0  0  0  0
    1.3542   -2.3250    0.0000 C   0  0  0  0  0  0  0  0  0  0  0  0
    0.1167   -0.1875    0.0000 C   0  0  0  0  0  0  0  0  0  0  0  0
    1.9625   -2.6792    0.0000 C   0  0  0  0  0  0  0  0  0  0  0  0
   -0.4958   -0.5417    0.0000 C   0  0  0  0  0  0  0  0  0  0  0  0
    1.9792   -0.5417    0.0000 C   0  0  0  0  0  0  0  0  0  0  0  0
    1.3542   -0.1792    0.0000 C   0  0  0  0  0  0  0  0  0  0  0  0
    1.9792   -1.2417    0.0000 C   0  0  0  0  0  0  0  0  0  0  0  0
    2.5917   -0.1917    0.0000 C   0  0  0  0  0  0  0  0  0  0  0  0
    0.4667    0.4333    0.0000 C   0  0  0  0  0  0  0  0  0  0  0  0
   -0.2375    0.4333    0.0000 C   0  0  0  0  0  0  0  0  0  0  0  0
    0.9917   -2.9375    0.0000 C   0  0  0  0  0  0  0  0  0  0  0  0
    0.6417   -2.3250    0.0000 C   0  0  0  0  0  0  0  0  0  0  0  0
  2  9  1  0
  3  8  2  0
  4 16  1  0
  5 17  2  0
  6 13  3  0
  7 14  3  0
  8  1  1  0
  9  1  2  0
 10  5  1  0
 11  5  1  0
 12  4  1  0
 13 11  1  0
 14 12  1  0
 15 18  1  0
 16 15  2  0
 17 15  1  0
 18  2  1  0
 19 12  1  0
 20 12  1  0
 21 11  1  0
 22 11  1  0
  2  3  1  0
  4 10  2  0
M  END
> <chembl_id>
CHEMBL1399

> <chembl_pref_name>
ANASTROZOLE

$$$$

     RDKit          2D

 15 15  0  0  0  0  0  0  0  0999 V2000
    4.0542   -2.1667    0.0000 C   0  0  0  0  0  0  0  0  0  0  0  0
    3.4417   -1.8292    0.0000 C   0  0  0  0  0  0  0  0  0  0  0  0
    2.8292   -2.2125    0.0000 C   0  0  0  0  0  0  0  0  0  0  0  0
    4.0792   -2.8792    0.0000 O   0  0  0  0  0  0  0  0  0  0  0  0
    2.2125   -1.8625    0.0000 C   0  0  0  0  0  0  0  0  0  0  0  0
    2.8417   -2.9042    0.0000 C   0  0  0  0  0  0  0  0  0  0  0  0
    4.6542   -1.7875    0.0000 O   0  0  0  0  0  0  0  0  0  0  0  0
    1.6167   -2.9417    0.0000 C   0  0  0  0  0  0  0  0  0  0  0  0
    2.2417   -3.2667    0.0000 C   0  0  0  0  0  0  0  0  0  0  0  0
    1.6042   -2.2292    0.0000 C   0  0  0  0  0  0  0  0  0  0  0  0
    1.0042   -3.3042    0.0000 C   0  0  0  0  0  0  0  0  0  0  0  0
    3.4167   -1.1167    0.0000 C   0  0  0  0  0  0  0  0  0  0  0  0
    0.3875   -2.9667    0.0000 C   0  0  0  0  0  0  0  0  0  0  0  0
   -0.2250   -3.3292    0.0000 C   0  0  0  0  0  0  0  0  0  0  0  0
    0.3750   -2.2542    0.0000 C   0  0  0  0  0  0  0  0  0  0  0  0
  2  1  1  0
  3  2  1  0
  4  1  2  0
  5  3  2  0
  6  3  1  0
  7  1  1  0
  8  9  1  0
  9  6  2  0
 10  5  1  0
 11  8  1  0
 12  2  1  0
 13 11  1  0
 14 13  1  0
 15 13  1  0
  8 10  2  0
M  END
> <chembl_id>
CHEMBL521

> <chembl_pref_name>
IBUPROFEN

$$$$

     RDKit          2D

 17 17  0  0  0  0  0  0  0  0999 V2000
    4.6042   -7.0542    0.0000 C   0  0  0  0  0  0  0  0  0  0  0  0
    3.9792   -7.4042    0.0000 C   0  0  0  0  0  0  0  0  0  0  0  0
    4.6167   -6.3542    0.0000 O   0  0  0  0  0  0  0  0  0  0  0  0
    5.2042   -7.4292    0.0000 N   0  0  0  0  0  0  0  0  0  0  0  0
    3.3750   -7.0417    0.0000 C   0  0  0  0  0  0  0  0  0  0  0  0
    3.9667   -8.1167    0.0000 C   0  0  0  0  0  0  0  0  0  0  0  0
    2.7292   -8.0917    0.0000 C   0  0  0  0  0  0  0  0  0  0  0  0
    7.0667   -7.1042    0.0000 N   0  0  0  0  0  0  0  0  0  0  0  0
    2.1125   -8.4375    0.0000 N   0  0  0  0  0  0  0  0  0  0  0  0
    3.3417   -8.4625    0.0000 C   0  0  0  0  0  0  0  0  0  0  0  0
    2.7417   -7.3792    0.0000 C   0  0  0  0  0  0  0  0  0  0  0  0
    5.8292   -7.0875    0.0000 C   0  0  0  0  0  0  0  0  0  0  0  0
    6.4417   -7.4500    0.0000 C   0  0  0  0  0  0  0  0  0  0  0  0
    7.6792   -7.4792    0.0000 C   0  0  0  0  0  0  0  0  0  0  0  0
    7.0792   -6.3917    0.0000 C   0  0  0  0  0  0  0  0  0  0  0  0
    8.3042   -7.1292    0.0000 C   0  0  0  0  0  0  0  0  0  0  0  0
    7.7042   -6.0542    0.0000 C   0  0  0  0  0  0  0  0  0  0  0  0
  2  1  1  0
  3  1  2  0
  4  1  1  0
  5  2  1  0
  6  2  2  0
  7 10  2  0
  8 13  1  0
  9  7  1  0
 10  6  1  0
 11  5  2  0
 12  4  1  0
 13 12  1  0
 14  8  1  0
 15  8  1  0
 16 14  1  0
 17 15  1  0
  7 11  1  0
M  END
> <chembl_id>
CHEMBL640

> <chembl_pref_name>
PROCAINAMIDE

$$$$

     RDKit          2D

 20 23  0  0  0  0  0  0  0  0999 V2000
    4.7292   -5.5167    0.0000 N   0  0  0  0  0  0  0  0  0  0  0  0
    5.4417   -5.5167    0.0000 C   0  0  0  0  0  0  0  0  0  0  0  0
    4.2792   -5.0167    0.0000 C   0  0  0  0  0  0  0  0  0  0  0  0
    5.8542   -4.9167    0.0000 C   0  0  0  0  0  0  0  0  0  0  0  0
    4.4250   -4.2542    0.0000 C   0  0  0  0  0  0  0  0  0  0  0  0
    5.7125   -4.2500    0.0000 C   0  0  0  0  0  0  0  0  0  0  0  0
    4.3875   -6.1292    0.0000 C   0  0  0  0  0  0  0  0  0  0  0  0
    5.0417   -3.9292    0.0000 C   0  0  0  0  0  0  0  0  0  0  0  0
    5.4292   -6.7375    0.0000 N   0  0  0  0  0  0  0  0  0  0  0  0
    5.7917   -6.1167    0.0000 C   0  0  0  0  0  0  0  0  0  0  0  0
    3.6167   -5.2292    0.0000 N   0  0  0  0  0  0  0  0  0  0  0  0
    4.7042   -6.7375    0.0000 C   0  0  0  0  0  0  0  0  0  0  0  0
    6.5542   -5.1250    0.0000 C   0  0  0  0  0  0  0  0  0  0  0  0
    3.8667   -3.8417    0.0000 C   0  0  0  0  0  0  0  0  0  0  0  0
    5.7542   -7.4417    0.0000 C   0  0  0  0  0  0  0  0  0  0  0  0
    6.2042   -3.7500    0.0000 C   0  0  0  0  0  0  0  0  0  0  0  0
    3.0875   -4.7792    0.0000 C   0  0  0  0  0  0  0  0  0  0  0  0
    3.2292   -4.0917    0.0000 C   0  0  0  0  0  0  0  0  0  0  0  0
    7.0542   -4.6500    0.0000 C   0  0  0  0  0  0  0  0  0  0  0  0
    6.8875   -3.9625    0.0000 C   0  0  0  0  0  0  0  0  0  0  0  0
  2  1  1  0
  3  1  1  0
  4  2  1  0
  5  3  2  0
  6  4  2  0
  7  1  1  0
  8  5  1  0
  9 12  1  0
 10  2  1  0
 11  3  1  0
 12  7  1  0
 13  4  1  0
 14  5  1  0
 15  9  1  0
 16  6  1  0
 17 11  2  0
 18 17  1  0
 19 13  2  0
 20 19  1  0
  9 10  1  0
  8  6  1  0
 18 14  2  0
 20 16  2  0
M  END
> <chembl_id>
CHEMBL654

> <chembl_pref_name>
MIRTAZAPINE

$$$$

     RDKit          2D

 17 18  0  0  0  0  0  0  0  0999 V2000
    8.8250   -5.3417    0.0000 S   0  0  0  0  0  0  0  0  0  0  0  0
    9.4292   -4.9875    0.0000 N   0  0  0  0  0  0  0  0  0  0  0  0
   10.0542   -5.3375    0.0000 C   0  0  0  0  0  0  0  0  0  0  0  0
    8.2042   -5.0000    0.0000 C   0  0  0  0  0  0  0  0  0  0  0  0
    8.4750   -5.9542    0.0000 O   0  0  0  0  0  0  0  0  0  0  0  0
    9.1875   -5.9542    0.0000 O   0  0  0  0  0  0  0  0  0  0  0  0
   10.0667   -6.0417    0.0000 N   0  0  0  0  0  0  0  0  0  0  0  0
   10.6667   -4.9667    0.0000 N   0  0  0  0  0  0  0  0  0  0  0  0
    7.6000   -5.3625    0.0000 C   0  0  0  0  0  0  0  0  0  0  0  0
    8.2000   -4.2917    0.0000 C   0  0  0  0  0  0  0  0  0  0  0  0
    6.9750   -4.3042    0.0000 C   0  0  0  0  0  0  0  0  0  0  0  0
    6.3542   -3.9542    0.0000 N   0  0  0  0  0  0  0  0  0  0  0  0
    6.9792   -5.0167    0.0000 C   0  0  0  0  0  0  0  0  0  0  0  0
    7.5875   -3.9417    0.0000 C   0  0  0  0  0  0  0  0  0  0  0  0
   11.3042   -6.0292    0.0000 C   0  0  0  0  0  0  0  0  0  0  0  0
   11.2917   -5.3167    0.0000 C   0  0  0  0  0  0  0  0  0  0  0  0
   10.7000   -6.3875    0.0000 C   0  0  0  0  0  0  0  0  0  0  0  0
  2  1  1  0
  3  2  1  0
  4  1  1  0
  5  1  2  0
  6  1  2  0
  7  3  1  0
  8  3  2  0
  9  4  2  0
 10  4  1  0
 11 14  1  0
 12 11  1  0
 13  9  1  0
 14 10  2  0
 15 16  2  0
 16  8  1  0
 17  7  2  0
 11 13  2  0
 15 17  1  0
M  END
> <chembl_id>
CHEMBL439

> <chembl_pref_name>
SULFADIAZINE

$$$$

     RDKit          2D

 13 10  0  0  0  0  0  0  0  0999 V2000
    5.1167   -4.1542    0.0000 Ca  0  0  0  0  0 15  0  0  0  0  0  0
    3.8417   -4.6917    0.0000 C   0  0  0  0  0  0  0  0  0  0  0  0
    4.4625   -5.0375    0.0000 O   0  0  0  0  0  0  0  0  0  0  0  0
    3.8417   -3.9750    0.0000 O   0  0  0  0  0  0  0  0  0  0  0  0
    3.2167   -5.0375    0.0000 C   0  0  0  0  0  0  0  0  0  0  0  0
    2.6042   -4.6917    0.0000 O   0  0  0  0  0  0  0  0  0  0  0  0
    3.2167   -5.7500    0.0000 C   0  0  0  0  0  0  0  0  0  0  0  0
    6.3042   -4.6917    0.0000 C   0  0  0  0  0  0  0  0  0  0  0  0
    5.6875   -5.0375    0.0000 O   0  0  0  0  0  0  0  0  0  0  0  0
    6.3042   -3.9750    0.0000 O   0  0  0  0  0  0  0  0  0  0  0  0
    6.9250   -5.0375    0.0000 C   0  0  0  0  0  0  0  0  0  0  0  0
    7.5417   -4.6917    0.0000 O   0  0  0  0  0  0  0  0  0  0  0  0
    6.9250   -5.7500    0.0000 C   0  0  0  0  0  0  0  0  0  0  0  0
  3  2  1  0
  4  2  2  0
  5  2  1  0
  6  5  1  0
  7  5  1  0
  9  8  1  0
 10  8  2  0
 11  8  1  0
 12 11  1  0
 13 11  1  0
M  CHG  3   1   2   3  -1   9  -1
M  END
> <chembl_id>
CHEMBL2106111

> <chembl_pref_name>
CALCIUM LACTATE

$$$$

     RDKit          2D

 10 10  0  0  0  0  0  0  0  0999 V2000
   -0.0875    0.0333    0.0000 C   0  0  0  0  0  0  0  0  0  0  0  0
    1.1750   -0.6750    0.0000 C   0  0  0  0  0  0  0  0  0  0  0  0
   -0.0875    1.4833    0.0000 C   0  0  0  0  0  0  0  0  0  0  0  0
    1.1750   -2.1250    0.0000 O   0  0  0  0  0  0  0  0  0  0  0  0
    2.4375    0.0333    0.0000 O   0  0  0  0  0  0  0  0  0  0  0  0
    1.1375    2.2208    0.0000 O   0  0  0  0  0  0  0  0  0  0  0  0
   -1.3208   -0.6750    0.0000 C   0  0  0  0  0  0  0  0  0  0  0  0
   -1.3208    2.1875    0.0000 C   0  0  0  0  0  0  0  0  0  0  0  0
   -2.5458    0.0708    0.0000 C   0  0  0  0  0  0  0  0  0  0  0  0
   -2.5458    1.4833    0.0000 C   0  0  0  0  0  0  0  0  0  0  0  0
  2  1  1  0
  3  1  2  0
  4  2  2  0
  5  2  1  0
  6  3  1  0
  7  1  1  0
  8  3  1  0
  9  7  2  0
 10  9  1  0
  8 10  2  0
M  END
> <chembl_id>
CHEMBL424

> <chembl_pref_name>
SALICYLIC ACID

$$$$

     RDKit          2D

 20 21  0  0  0  0  0  0  0  0999 V2000
    5.0542   -0.9083    0.0000 Na  0  0  0  0  0 15  0  0  0  0  0  0
    2.4667    0.2625    0.0000 C   0  0  0  0  0  0  0  0  0  0  0  0
    2.6833   -0.4083    0.0000 C   0  0  0  0  0  0  0  0  0  0  0  0
    1.7583    0.2625    0.0000 N   0  0  0  0  0  0  0  0  0  0  0  0
    3.0792    0.6250    0.0000 N   0  0  0  0  0  0  0  0  0  0  0  0
    3.3000   -0.7583    0.0000 S   0  0  0  0  0  0  0  0  0  0  0  0
    2.1125   -0.8292    0.0000 N   0  0  0  0  0  0  0  0  0  0  0  0
    3.3000   -1.4667    0.0000 C   0  0  0  0  0  0  0  0  0  0  0  0
    3.9125   -1.8208    0.0000 C   0  0  0  0  0  0  0  0  0  0  0  0
    1.5375   -0.4083    0.0000 C   0  0  0  0  0  0  0  0  0  0  0  0
    3.9167   -2.5292    0.0000 C   0  0  0  0  0  0  0  0  0  0  0  0
    4.5917   -2.7458    0.0000 N   0  0  0  0  0  0  0  0  0  0  0  0
    2.6875   -1.8208    0.0000 N   0  0  0  0  0  0  0  0  0  0  0  0
    4.5875   -1.5958    0.0000 N   0  0  0  0  0  0  0  0  0  0  0  0
    3.3000   -2.8875    0.0000 N   0  0  0  0  0  0  0  0  0  0  0  0
    5.0083   -2.1667    0.0000 C   0  0  0  0  0  0  0  0  0  0  0  0
    3.6917    0.2708    0.0000 O   0  0  0  0  0  0  0  0  0  0  0  0
    2.6875   -2.5333    0.0000 C   0  0  0  0  0  0  0  0  0  0  0  0
    3.0708    1.3292    0.0000 O   0  0  0  0  0  0  0  0  0  0  0  0
    2.1125   -1.5375    0.0000 C   0  0  0  0  0  0  0  0  0  0  0  0
  3  2  2  0
  4  2  1  0
  5  2  1  0
  6  3  1  0
  7  3  1  0
  8  6  1  0
  9  8  2  0
 10  4  2  0
 11  9  1  0
 12 11  1  0
 13  8  1  0
 14  9  1  0
 15 18  1  0
 16 14  1  0
 17  5  1  0
 18 13  2  0
 19  5  2  0
 20  7  1  0
 10  7  1  0
 11 15  2  0
 16 12  2  0
M  CHG  4   1   1   5   1  14  -1  17  -1
M  END
> <chembl_id>
CHEMBL1200400

> <chembl_pref_name>
AZATHIOPRINE SODIUM

$$$$

     RDKit          2D

 21 22  0  0  0  0  0  0  0  0999 V2000
    7.6667   -7.3917    0.0000 N   0  0  0  0  0  0  0  0  0  0  0  0
    8.9042   -8.1000    0.0000 O   0  0  0  0  0  0  0  0  0  0  0  0
    4.6042   -7.0292    0.0000 C   0  0  0  0  0  0  0  0  0  0  0  0
    3.3792   -6.3125    0.0000 C   0  0  0  0  0  0  0  0  0  0  0  0
    3.3667   -7.0292    0.0000 C   0  0  0  0  0  0  0  0  0  0  0  0
    3.9917   -5.9542    0.0000 C   0  0  0  0  0  0  0  0  0  0  0  0
    3.9875   -7.3792    0.0000 C   0  0  0  0  0  0  0  0  0  0  0  0
    4.6042   -6.3167    0.0000 C   0  0  0  0  0  0  0  0  0  0  0  0
    7.0542   -7.0417    0.0000 C   0  0  0  0  0  0  0  0  0  0  0  0
    6.4417   -7.3792    0.0000 C   0  0  0  0  0  0  0  0  0  0  0  0
    5.2125   -7.3792    0.0000 O   0  0  0  0  0  0  0  0  0  0  0  0
    2.7542   -5.9542    0.0000 O   0  0  0  0  0  0  0  0  0  0  0  0
    8.2792   -7.0417    0.0000 C   0  0  0  0  0  0  0  0  0  0  0  0
    7.6750   -8.0917    0.0000 C   0  0  0  0  0  0  0  0  0  0  0  0
    8.9000   -7.4000    0.0000 C   0  0  0  0  0  0  0  0  0  0  0  0
    8.2917   -8.4542    0.0000 C   0  0  0  0  0  0  0  0  0  0  0  0
    5.8292   -7.0250    0.0000 C   0  0  0  0  0  0  0  0  0  0  0  0
    2.1542   -6.3167    0.0000 C   0  0  0  0  0  0  0  0  0  0  0  0
    1.5292   -5.9625    0.0000 C   0  0  0  0  0  0  0  0  0  0  0  0
    0.9167   -6.3125    0.0000 C   0  0  0  0  0  0  0  0  0  0  0  0
    0.3000   -5.9542    0.0000 C   0  0  0  0  0  0  0  0  0  0  0  0
  2 15  1  0
  3 11  1  0
  4  5  1  0
  5  7  2  0
  6  8  1  0
  7  3  1  0
  8  3  2  0
  9  1  1  0
 10  9  1  0
 11 17  1  0
 12  4  1  0
 13  1  1  0
 14  1  1  0
 15 13  1  0
 16 14  1  0
 17 10  1  0
 18 12  1  0
 19 18  1  0
 20 19  1  0
 21 20  1  0
  2 16  1  0
  4  6  2  0
M  END
> <chembl_id>
CHEMBL1198

> <chembl_pref_name>
PRAMOXINE

$$$$

     RDKit          2D

 14 14  0  0  0  0  0  0  0  0999 V2000
    0.6417   -1.7042    0.0000 C   0  0  0  0  0  0  0  0  0  0  0  0
   -2.1583   -1.2667    0.0000 N   0  0  0  0  0  0  0  0  0  0  0  0
    1.4000   -1.4292    0.0000 N   0  0  0  0  0  0  0  0  0  0  0  0
    0.0167   -1.2000    0.0000 N   0  0  0  0  0  0  0  0  0  0  0  0
    0.5125   -2.5000    0.0000 N   0  0  0  0  0  0  0  0  0  0  0  0
   -0.7333   -1.4917    0.0000 C   0  0  0  0  0  0  0  0  0  0  0  0
   -1.3833   -0.9792    0.0000 C   0  0  0  0  0  0  0  0  0  0  0  0
   -2.1583   -2.0792    0.0000 C   0  0  0  0  0  0  0  0  0  0  0  0
   -2.7333   -0.7000    0.0000 C   0  0  0  0  0  0  0  0  0  0  0  0
   -2.7333   -2.6542    0.0000 C   0  0  0  0  0  0  0  0  0  0  0  0
   -3.5500   -0.7000    0.0000 C   0  0  0  0  0  0  0  0  0  0  0  0
   -3.5458   -2.6542    0.0000 C   0  0  0  0  0  0  0  0  0  0  0  0
   -4.1333   -1.2792    0.0000 C   0  0  0  0  0  0  0  0  0  0  0  0
   -4.1333   -2.0792    0.0000 C   0  0  0  0  0  0  0  0  0  0  0  0
  2  7  1  0
  3  1  2  0
  4  1  1  0
  5  1  1  0
  6  4  1  0
  7  6  1  0
  8  2  1  0
  9  2  1  0
 10  8  1  0
 11  9  1  0
 12 10  1  0
 13 11  1  0
 14 13  1  0
 12 14  1  0
M  END
> <chembl_id>
CHEMBL765

> <chembl_pref_name>
GUANETHIDINE

$$$$

     RDKit          2D

 21 22  0  0  0  0  0  0  0  0999 V2000
    0.0000   -0.9250    0.0000 N   0  0  0  0  0  0  0  0  0  0  0  0
    2.7250   -2.1167    0.0000 C   0  0  0  0  0  0  0  0  0  0  0  0
   -2.3833   -2.6917    0.0000 C   0  0  0  0  0  0  0  0  0  0  0  0
   -1.1958   -1.8042    0.0000 C   0  0  0  0  0  0  0  0  0  0  0  0
    1.3625   -1.5167    0.0000 C   0  0  0  0  0  0  0  0  0  0  0  0
    0.8500   -0.8292    0.0000 C   0  0  0  0  0  0  0  0  0  0  0  0
   -0.3375   -1.7125    0.0000 C   0  0  0  0  0  0  0  0  0  0  0  0
   -1.5333   -2.6000    0.0000 C   0  0  0  0  0  0  0  0  0  0  0  0
    2.2167   -1.4167    0.0000 C   0  0  0  0  0  0  0  0  0  0  0  0
   -0.5000   -0.2292    0.0000 C   0  0  0  0  0  0  0  0  0  0  0  0
    3.5792   -2.0167    0.0000 C   0  0  0  0  0  0  0  0  0  0  0  0
    2.3792   -2.9000    0.0000 C   0  0  0  0  0  0  0  0  0  0  0  0
   -2.7333   -3.4792    0.0000 C   0  0  0  0  0  0  0  0  0  0  0  0
   -2.8958   -2.0000    0.0000 C   0  0  0  0  0  0  0  0  0  0  0  0
   -1.3583   -0.3250    0.0000 C   0  0  0  0  0  0  0  0  0  0  0  0
    4.0875   -2.7125    0.0000 C   0  0  0  0  0  0  0  0  0  0  0  0
    2.8917   -3.5917    0.0000 C   0  0  0  0  0  0  0  0  0  0  0  0
   -3.5833   -3.5792    0.0000 C   0  0  0  0  0  0  0  0  0  0  0  0
   -3.7583   -2.1000    0.0000 C   0  0  0  0  0  0  0  0  0  0  0  0
    3.7500   -3.5000    0.0000 C   0  0  0  0  0  0  0  0  0  0  0  0
   -4.0958   -2.8917    0.0000 C   0  0  0  0  0  0  0  0  0  0  0  0
  2  9  1  0
  3  8  1  0
  4  7  1  0
  5  6  1  0
  6  1  1  0
  7  1  1  0
  8  4  1  0
  9  5  1  0
 10  1  1  0
 11  2  1  0
 12  2  2  0
 13  3  1  0
 14  3  2  0
 15 10  1  0
 16 11  2  0
 17 12  1  0
 18 13  2  0
 19 14  1  0
 20 17  2  0
 21 19  2  0
 18 21  1  0
 16 20  1  0
M  END
> <chembl_id>
CHEMBL253371

> <chembl_pref_name>
ALVERINE

$$$$

     RDKit          2D

  2  1  0  0  0  0  0  0  0  0999 V2000
    1.0000    0.0000    0.0000 N   0  0  0  0  0  2  0  0  0  0  0  0
    0.0000    0.0000    0.0000 O   0  0  0  0  0  0  0  0  0  0  0  0
  1  2  2  0
M  RAD  1   1   2
M  END
> <chembl_id>
CHEMBL1200689

> <chembl_pref_name>
NITRIC OXIDE

$$$$

     RDKit          2D

 16 14  0  0  0  0  0  0  0  0999 V2000
   -0.2250   -1.5292    0.0000 Cl  0  0  0  0  0  0  0  0  0  0  0  0
    1.6667   -2.1042    0.0000 C   0  0  0  0  0  0  0  0  0  0  0  0
    1.6667   -1.3917    0.0000 O   0  0  0  0  0  0  0  0  0  0  0  0
   -0.1708   -3.1667    0.0000 O   0  0  0  0  0  0  0  0  0  0  0  0
   -0.1708   -2.4625    0.0000 C   0  0  0  0  0  0  0  0  0  0  0  0
    1.0542   -2.4625    0.0000 C   0  0  0  0  0  0  0  0  0  0  0  0
    0.4417   -2.1042    0.0000 C   0  0  0  0  0  0  0  0  0  0  0  0
    2.2792   -2.4625    0.0000 O   0  0  0  0  0  0  0  0  0  0  0  0
   -1.4000   -2.4542    0.0000 N   0  0  0  0  0  0  0  0  0  0  0  0
   -0.7875   -2.1042    0.0000 C   0  0  0  0  0  0  0  0  0  0  0  0
    2.8917   -2.1042    0.0000 C   0  0  0  0  0  0  0  0  0  0  0  0
    3.5042   -2.4625    0.0000 C   0  0  0  0  0  0  0  0  0  0  0  0
    2.2667   -3.1417    0.0000 C   0  0  0  0  0  0  0  0  0  0  0  0
    2.8667   -3.5125    0.0000 C   0  0  0  0  0  0  0  0  0  0  0  0
    3.4917   -3.1667    0.0000 C   0  0  0  0  0  0  0  0  0  0  0  0
    1.6417   -3.4917    0.0000 C   0  0  0  0  0  0  0  0  0  0  0  0
  3  2  2  0
  4  5  2  0
  5  7  1  0
  6  2  1  0
  7  6  1  0
  8  2  1  0
  9 10  1  0
 10  5  1  0
 11  8  1  0
 12 11  1  0
 13 14  1  0
 14 15  1  0
 15 12  1  0
 16 13  1  0
M  END
> <chembl_id>
CHEMBL1201785

> <chembl_pref_name>
HEXAMINOLEVULINATE HYDROCHLORIDE

$$$$

     RDKit          2D

 20 21  0  0  0  0  0  0  0  0999 V2000
   -2.8000    0.4333    0.0000 C   0  0  0  0  0  0  0  0  0  0  0  0
   -3.5958    0.1458    0.0000 N   0  0  0  0  0  0  0  0  0  0  0  0
   -2.0958   -0.0500    0.0000 O   0  0  0  0  0  0  0  0  0  0  0  0
   -2.5458    1.2833    0.0000 C   0  0  0  0  0  0  0  0  0  0  0  0
   -1.4000    0.4833    0.0000 C   0  0  0  0  0  0  0  0  0  0  0  0
    1.0375   -0.1375    0.0000 C   0  0  0  0  0  0  0  0  0  0  0  0
   -0.3500   -0.5250    0.0000 N   0  0  0  0  0  0  0  0  0  0  0  0
   -1.6958    1.2833    0.0000 C   0  0  0  0  0  0  0  0  0  0  0  0
   -4.2458    0.6875    0.0000 O   0  0  0  0  0  0  0  0  0  0  0  0
   -3.7208   -0.6750    0.0000 O   0  0  0  0  0  0  0  0  0  0  0  0
   -0.5833    0.2750    0.0000 C   0  0  0  0  0  0  0  0  0  0  0  0
    1.8542   -0.3167    0.0000 C   0  0  0  0  0  0  0  0  0  0  0  0
    0.4542   -0.7375    0.0000 N   0  0  0  0  0  0  0  0  0  0  0  0
    0.7875    0.6458    0.0000 O   0  0  0  0  0  0  0  0  0  0  0  0
    2.1167   -1.1000    0.0000 C   0  0  0  0  0  0  0  0  0  0  0  0
    2.4042    0.3000    0.0000 C   0  0  0  0  0  0  0  0  0  0  0  0
    3.4792   -0.6667    0.0000 C   0  0  0  0  0  0  0  0  0  0  0  0
    3.2292    0.1208    0.0000 C   0  0  0  0  0  0  0  0  0  0  0  0
    2.9417   -1.2792    0.0000 C   0  0  0  0  0  0  0  0  0  0  0  0
    4.2792   -0.8667    0.0000 O   0  0  0  0  0  0  0  0  0  0  0  0
  2  1  1  0
  3  1  1  0
  4  1  2  0
  5  3  1  0
  6 13  1  0
  7 11  2  0
  8  4  1  0
  9  2  1  0
 10  2  2  0
 11  5  1  0
 12  6  1  0
 13  7  1  0
 14  6  2  0
 15 12  2  0
 16 12  1  0
 17 18  1  0
 18 16  2  0
 19 15  1  0
 20 17  1  0
  5  8  2  0
 19 17  2  0
M  CHG  2   2   1   9  -1
M  END
> <chembl_id>
CHEMBL244888

> <chembl_pref_name>
NIFUROXAZIDE

$$$$

     RDKit          2D

 18 19  0  0  0  0  0  0  0  0999 V2000
    6.0167   -6.6875    0.0000 K   0  0  0  0  0 15  0  0  0  0  0  0
    3.6667   -5.9042    0.0000 N   0  0  0  0  0  0  0  0  0  0  0  0
    4.9042   -5.9042    0.0000 C   0  0  0  0  0  0  0  0  0  0  0  0
    4.2792   -5.5292    0.0000 C   0  0  0  0  0  0  0  0  0  0  0  0
    3.6667   -6.6167    0.0000 C   0  0  0  0  0  0  0  0  0  0  0  0
    4.2792   -6.9667    0.0000 N   0  0  0  0  0  0  0  0  0  0  0  0
    5.4917   -5.5292    0.0000 C   0  0  0  0  0  0  0  0  0  0  0  0
    4.9042   -6.6167    0.0000 C   0  0  0  0  0  0  0  0  0  0  0  0
    6.0625   -5.9875    0.0000 N   0  0  0  0  0  0  0  0  0  0  0  0
    6.6417   -5.5667    0.0000 N   0  0  0  0  0  0  0  0  0  0  0  0
    6.4292   -4.8875    0.0000 N   0  0  0  0  0  0  0  0  0  0  0  0
    5.7292   -4.8875    0.0000 N   0  0  0  0  0  0  0  0  0  0  0  0
    3.0500   -6.9667    0.0000 C   0  0  0  0  0  0  0  0  0  0  0  0
    3.0500   -5.5292    0.0000 C   0  0  0  0  0  0  0  0  0  0  0  0
    4.2792   -4.8500    0.0000 O   0  0  0  0  0  0  0  0  0  0  0  0
    2.4417   -5.9042    0.0000 C   0  0  0  0  0  0  0  0  0  0  0  0
    2.4417   -6.6167    0.0000 C   0  0  0  0  0  0  0  0  0  0  0  0
    3.0500   -7.6792    0.0000 C   0  0  0  0  0  0  0  0  0  0  0  0
  3  4  1  0
  4  2  1  0
  5  2  1  0
  6  5  2  0
  7  3  1  0
  8  6  1  0
  9  7  1  0
 10  9  1  0
 11 12  1  0
 12  7  2  0
 13  5  1  0
 14  2  1  0
 15  4  2  0
 16 14  2  0
 17 16  1  0
 18 13  1  0
 17 13  2  0
  8  3  2  0
 10 11  2  0
M  CHG  2   1   1   9  -1
M  END
> <chembl_id>
CHEMBL1201050

> <chembl_pref_name>
PEMIROLAST POTASSIUM

$$$$

     RDKit          2D

 12 11  0  0  0  0  0  0  0  0999 V2000
    2.9542   -3.6500    0.0000 C   0  0  0  0  0  0  0  0  0  0  0  0
    3.5542   -3.3125    0.0000 C   0  0  0  0  0  0  0  0  0  0  0  0
    2.6000   -4.2542    0.0000 C   0  0  0  0  0  0  0  0  0  0  0  0
    3.5542   -2.6167    0.0000 O   0  0  0  0  0  0  0  0  0  0  0  0
    3.3042   -4.2542    0.0000 N   0  0  0  0  0  0  0  0  0  0  0  0
    4.1625   -3.6667    0.0000 O   0  0  0  0  0  0  0  0  0  0  0  0
    1.8917   -4.2542    0.0000 F   0  0  0  0  0  0  0  0  0  0  0  0
    2.9417   -4.8792    0.0000 F   0  0  0  0  0  0  0  0  0  0  0  0
    2.3292   -3.2917    0.0000 C   0  0  0  0  0  0  0  0  0  0  0  0
    0.5000   -3.6500    0.0000 N   0  0  0  0  0  0  0  0  0  0  0  0
    1.1125   -3.2917    0.0000 C   0  0  0  0  0  0  0  0  0  0  0  0
    1.6917   -3.6500    0.0000 C   0  0  0  0  0  0  0  0  0  0  0  0
  2  1  1  0
  3  1  1  0
  4  2  2  0
  5  1  1  0
  6  2  1  0
  7  3  1  0
  8  3  1  0
  9  1  1  0
 10 11  1  0
 11 12  1  0
 12  9  1  0
M  END
> <chembl_id>
CHEMBL830

> <chembl_pref_name>
EFLORNITHINE

$$$$

     RDKit          2D

  7  5  0  0  0  0  0  0  0  0999 V2000
    2.9125   -2.5417    0.0000 N   0  0  0  0  0  0  0  0  0  0  0  0
    1.3917   -2.2125    0.0000 C   0  0  0  0  0  0  0  0  0  0  0  0
    1.9542   -2.5917    0.0000 O   0  0  0  0  0  0  0  0  0  0  0  0
    1.3875   -1.4667    0.0000 O   0  0  0  0  0  0  0  0  0  0  0  0
    0.7875   -2.5792    0.0000 C   0  0  0  0  0  0  0  0  0  0  0  0
    0.1625   -2.2375    0.0000 O   0  0  0  0  0  0  0  0  0  0  0  0
    0.8000   -3.2792    0.0000 C   0  0  0  0  0  0  0  0  0  0  0  0
  3  2  1  0
  4  2  2  0
  5  2  1  0
  6  5  1  0
  7  5  1  0
M  END
> <chembl_id>
CHEMBL1200747

> <chembl_pref_name>
AMMONIUM LACTATE

$$$$

     RDKit          2D

 18 18  0  0  0  0  0  0  0  0999 V2000
   12.9365  -17.9156    0.0000 N   0  0  0  0  0  0  0  0  0  0  0  0
   13.6491  -18.3267    0.0000 C   0  0  0  0  0  0  0  0  0  0  0  0
   14.3617  -17.9156    0.0000 N   0  0  0  0  0  0  0  0  0  0  0  0
   17.9293  -18.3267    0.0000 P   0  0  0  0  0  0  0  0  0  0  0  0
   12.9365  -17.0933    0.0000 C   0  0  0  0  0  0  0  0  0  0  0  0
   13.6491  -16.6685    0.0000 C   0  0  0  0  0  0  0  0  0  0  0  0
   14.3617  -17.0933    0.0000 C   0  0  0  0  0  0  0  0  0  0  0  0
   17.2167  -17.9110    0.0000 C   0  0  0  0  0  0  0  0  0  0  0  0
   15.0743  -18.3267    0.0000 C   0  0  0  0  0  0  0  0  0  0  0  0
   13.6491  -19.1489    0.0000 O   0  0  0  0  0  0  0  0  0  0  0  0
   18.3358  -19.0393    0.0000 O   0  0  0  0  0  0  0  0  0  0  0  0
   16.5041  -18.3267    0.0000 O   0  0  0  0  0  0  0  0  0  0  0  0
   17.5136  -19.0393    0.0000 O   0  0  0  0  0  0  0  0  0  0  0  0
   18.6419  -17.9156    0.0000 O   0  0  0  0  0  0  0  0  0  0  0  0
   15.7915  -17.9156    0.0000 C   0  0  0  0  0  0  0  0  0  0  0  0
   12.2239  -16.6822    0.0000 N   0  0  0  0  0  0  0  0  0  0  0  0
   16.5041  -16.6776    0.0000 O   0  0  0  0  0  0  0  0  0  0  0  0
   15.7915  -17.0933    0.0000 C   0  0  0  0  0  0  0  0  0  0  0  0
  2  1  1  0
  3  2  1  0
  4  8  1  0
  5  1  2  0
  6  5  1  0
  7  6  2  0
  8 12  1  0
  9  3  1  0
 10  2  2  0
 11  4  2  0
 12 15  1  0
 13  4  1  0
 14  4  1  0
 15  9  1  0
 16  5  1  0
 17 18  1  0
 15 18  1  1
  3  7  1  0
M  END
> <chembl_id>
CHEMBL152

> <chembl_pref_name>
CIDOFOVIR

$$$$

     RDKit          2D

 13 13  0  0  0  0  0  0  0  0999 V2000
    0.6500   -0.1542    0.0000 C   0  0  0  0  0  0  0  0  0  0  0  0
   -0.6583   -0.8917    0.0000 C   0  0  0  0  0  0  0  0  0  0  0  0
    0.6500    1.2500    0.0000 N   0  0  0  0  0  0  0  0  0  0  0  0
    1.8792   -0.8917    0.0000 O   0  0  0  0  0  0  0  0  0  0  0  0
   -1.8833   -3.0417    0.0000 N   0  0  0  0  0  0  0  0  0  0  0  0
   -0.6583   -2.3375    0.0000 C   0  0  0  0  0  0  0  0  0  0  0  0
   -1.8833   -0.1917    0.0000 C   0  0  0  0  0  0  0  0  0  0  0  0
    1.8792    1.9875    0.0000 C   0  0  0  0  0  0  0  0  0  0  0  0
   -0.5833    1.9583    0.0000 C   0  0  0  0  0  0  0  0  0  0  0  0
   -3.1208   -2.3375    0.0000 C   0  0  0  0  0  0  0  0  0  0  0  0
   -3.1208   -0.9292    0.0000 C   0  0  0  0  0  0  0  0  0  0  0  0
    3.1167    1.2833    0.0000 C   0  0  0  0  0  0  0  0  0  0  0  0
   -0.5833    3.4000    0.0000 C   0  0  0  0  0  0  0  0  0  0  0  0
  2  1  1  0
  3  1  1  0
  4  1  2  0
  5  6  1  0
  6  2  2  0
  7  2  1  0
  8  3  1  0
  9  3  1  0
 10 11  1  0
 11  7  2  0
 12  8  1  0
 13  9  1  0
  5 10  2  0
M  END
> <chembl_id>
CHEMBL2104607

> <chembl_pref_name>
NIKETHAMIDE

$$$$

     RDKit          2D

 16 17  0  0  1  0  0  0  0  0999 V2000
    1.6667   -1.6542    0.0000 C   0  0  0  0  0  0  0  0  0  0  0  0
    1.6667   -0.9500    0.0000 C   0  0  0  0  0  0  0  0  0  0  0  0
    1.4250   -2.3250    0.0000 C   0  0  0  0  0  0  0  0  0  0  0  0
    1.0542   -0.5917    0.0000 C   0  0  0  0  0  0  0  0  0  0  0  0
    0.9667   -1.5375    0.0000 N   0  0  0  0  0  0  0  0  0  0  0  0
    0.7250   -2.4500    0.0000 O   0  0  0  0  0  0  0  0  0  0  0  0
    0.4375   -0.9500    0.0000 Cl  0  0  0  0  0  0  0  0  0  0  0  0
    2.3667   -1.5375    0.0000 C   0  0  0  0  0  0  0  0  0  0  0  0
    2.2792   -0.5917    0.0000 C   0  0  0  0  0  0  0  0  0  0  0  0
    1.8792   -2.8667    0.0000 C   0  0  0  0  0  0  0  0  0  0  0  0
    1.0542    0.1125    0.0000 C   0  0  0  0  0  0  0  0  0  0  0  0
    0.5125   -2.0792    0.0000 C   0  0  0  0  0  0  0  0  0  0  0  0
    2.8167   -2.0792    0.0000 C   0  0  0  0  0  0  0  0  0  0  0  0
    2.2792    0.1125    0.0000 C   0  0  0  0  0  0  0  0  0  0  0  0
    2.5792   -2.7417    0.0000 C   0  0  0  0  0  0  0  0  0  0  0  0
    1.6667    0.4708    0.0000 C   0  0  0  0  0  0  0  0  0  0  0  0
  1  2  1  1
  3  1  1  0
  4  2  1  0
  1  5  1  6
  6  3  2  0
  7  4  1  0
  8  1  1  0
  9  2  2  0
 10  3  1  0
 11  4  2  0
 12  5  1  0
 13  8  1  0
 14  9  1  0
 15 13  1  0
 16 14  2  0
 10 15  1  0
 16 11  1  0
M  END
> <chembl_id>
CHEMBL395091

> <chembl_pref_name>
ESKETAMINE

$$$$

     RDKit          2D

  7  6  0  0  0  0  0  0  0  0999 V2000
   -0.3000    0.0625    0.0000 C   0  0  0  0  0  0  0  0  0  0  0  0
    1.1500    0.0625    0.0000 C   0  0  0  0  0  0  0  0  0  0  0  0
    1.8417   -1.2167    0.0000 O   0  0  0  0  0  0  0  0  0  0  0  0
   -0.2833   -1.3625    0.0000 Cl  0  0  0  0  0  0  0  0  0  0  0  0
   -0.3000    1.4958    0.0000 Cl  0  0  0  0  0  0  0  0  0  0  0  0
   -1.7333    0.0625    0.0000 Cl  0  0  0  0  0  0  0  0  0  0  0  0
    1.8417    1.2708    0.0000 O   0  0  0  0  0  0  0  0  0  0  0  0
  2  1  1  0
  3  2  2  0
  4  1  1  0
  5  1  1  0
  6  1  1  0
  7  2  1  0
M  END
> <chembl_id>
CHEMBL14053

> <chembl_pref_name>
TRICHLOROACETIC ACID

$$$$

     RDKit          2D

 11 11  0  0  0  0  0  0  0  0999 V2000
   11.0011    1.5887    0.0000 C   0  0  0  0  0  0  0  0  0  0  0  0
   11.0011    0.7633    0.0000 C   0  0  0  0  0  0  0  0  0  0  0  0
   11.7142    0.3526    0.0000 C   0  0  0  0  0  0  0  0  0  0  0  0
   12.4230    0.7633    0.0000 C   0  0  0  0  0  0  0  0  0  0  0  0
   12.4230    1.5887    0.0000 C   0  0  0  0  0  0  0  0  0  0  0  0
   11.7142    2.0036    0.0000 C   0  0  0  0  0  0  0  0  0  0  0  0
   11.7142   -0.4729    0.0000 C   0  0  0  0  0  0  0  0  0  0  0  0
   10.9986   -0.8836    0.0000 C   0  0  0  0  0  0  0  0  0  0  0  0
   12.4255   -0.8836    0.0000 C   0  0  0  0  0  0  0  0  0  0  0  0
   11.7142    2.8291    0.0000 C   0  0  0  0  0  0  0  0  0  0  0  0
   13.1378    0.3475    0.0000 O   0  0  0  0  0  0  0  0  0  0  0  0
  4  5  1  0
  5  6  1  0
  3  7  1  0
  1  2  1  0
  7  8  1  0
  1  6  1  0
  7  9  1  0
  2  3  1  0
  6 10  1  0
  3  4  1  0
  4 11  1  0
M  END
> <chembl_id>
CHEMBL256087

> <chembl_pref_name>
MENTHOL

$$$$

     RDKit          2D

 19 19  0  0  0  0  0  0  0  0999 V2000
   -0.3458   -1.4583    0.0000 Na  0  0  0  0  0 15  0  0  0  0  0  0
   -0.5250   -3.2875    0.0000 C   0  0  0  0  0  0  0  0  0  0  0  0
   -0.5292   -2.5792    0.0000 C   0  0  0  0  0  0  0  0  0  0  0  0
   -1.1458   -3.6458    0.0000 N   0  0  0  0  0  0  0  0  0  0  0  0
    0.1458   -3.5000    0.0000 N   0  0  0  0  0  0  0  0  0  0  0  0
    0.1417   -2.3500    0.0000 N   0  0  0  0  0  0  0  0  0  0  0  0
   -1.7625   -2.5792    0.0000 N   0  0  0  0  0  0  0  0  0  0  0  0
   -1.7625   -3.2875    0.0000 C   0  0  0  0  0  0  0  0  0  0  0  0
   -1.1458   -2.2167    0.0000 C   0  0  0  0  0  0  0  0  0  0  0  0
    0.5625   -2.9250    0.0000 C   0  0  0  0  0  0  0  0  0  0  0  0
    0.1417   -4.2125    0.0000 C   0  0  0  0  0  0  0  0  0  0  0  0
   -1.1458   -1.5083    0.0000 O   0  0  0  0  0  0  0  0  0  0  0  0
   -2.3792   -3.6417    0.0000 N   0  0  0  0  0  0  0  0  0  0  0  0
    0.7542   -4.5750    0.0000 O   0  0  0  0  0  0  0  0  0  0  0  0
    0.7458   -5.2875    0.0000 C   0  0  0  0  0  0  0  0  0  0  0  0
    1.9792   -5.3042    0.0000 O   0  0  0  0  0  0  0  0  0  0  0  0
   -0.4875   -5.2750    0.0000 O   0  0  0  0  0  0  0  0  0  0  0  0
    0.1250   -5.6333    0.0000 C   0  0  0  0  0  0  0  0  0  0  0  0
    1.3583   -5.6500    0.0000 C   0  0  0  0  0  0  0  0  0  0  0  0
  3  2  2  0
  4  2  1  0
  5  2  1  0
  6  3  1  0
  7  9  2  0
  8  4  2  0
  9  3  1  0
 10  5  1  0
 11  5  1  0
 12  9  1  0
 13  8  1  0
 14 11  1  0
 15 14  1  0
 16 19  1  0
 17 18  1  0
 18 15  1  0
 19 15  1  0
  6 10  2  0
  8  7  1  0
M  CHG  2   1   1  12  -1
M  END
> <chembl_id>
CHEMBL1200850

> <chembl_pref_name>
GANCICLOVIR SODIUM

$$$$

     RDKit          2D

 12 11  0  0  1  0  0  0  0  0999 V2000
    3.3625   -4.2375    0.0000 C   0  0  0  0  0  0  0  0  0  0  0  0
    2.7500   -3.8875    0.0000 C   0  0  0  0  0  0  0  0  0  0  0  0
    3.9750   -3.8875    0.0000 C   0  0  0  0  0  0  0  0  0  0  0  0
    2.1292   -4.2375    0.0000 C   0  0  0  0  0  0  0  0  0  0  0  0
    3.3625   -4.9417    0.0000 O   0  0  0  0  0  0  0  0  0  0  0  0
    2.7500   -3.1750    0.0000 O   0  0  0  0  0  0  0  0  0  0  0  0
    3.9750   -3.1750    0.0000 O   0  0  0  0  0  0  0  0  0  0  0  0
    2.1292   -4.9417    0.0000 O   0  0  0  0  0  0  0  0  0  0  0  0
    5.2042   -3.8875    0.0000 O   0  0  0  0  0  0  0  0  0  0  0  0
    0.9042   -4.2375    0.0000 O   0  0  0  0  0  0  0  0  0  0  0  0
    1.5250   -3.8875    0.0000 C   0  0  0  0  0  0  0  0  0  0  0  0
    4.5875   -4.2375    0.0000 C   0  0  0  0  0  0  0  0  0  0  0  0
  2  1  1  0
  3  1  1  0
  4  2  1  0
  1  5  1  1
  2  6  1  1
  3  7  1  6
  4  8  1  1
  9 12  1  0
 10 11  1  0
 11  4  1  0
 12  3  1  0
M  END
> <chembl_id>
CHEMBL1682

> <chembl_pref_name>
SORBITOL

$$$$

     RDKit          2D

 19 20  0  0  0  0  0  0  0  0999 V2000
   -0.3500   -1.6750    0.0000 C   0  0  0  0  0  0  0  0  0  0  0  0
    2.3292    0.6458    0.0000 C   0  0  0  0  0  0  0  0  0  0  0  0
   -1.6833   -1.6542    0.0000 C   0  0  0  0  0  0  0  0  0  0  0  0
    0.3167   -0.5167    0.0000 O   0  0  0  0  0  0  0  0  0  0  0  0
    1.6542   -0.5167    0.0000 C   0  0  0  0  0  0  0  0  0  0  0  0
    1.6292    1.7750    0.0000 C   0  0  0  0  0  0  0  0  0  0  0  0
   -2.3375   -0.5167    0.0000 C   0  0  0  0  0  0  0  0  0  0  0  0
    0.3167   -2.8417    0.0000 O   0  0  0  0  0  0  0  0  0  0  0  0
    0.3000    1.7500    0.0000 O   0  0  0  0  0  0  0  0  0  0  0  0
    2.2792    2.9375    0.0000 O   0  0  0  0  0  0  0  0  0  0  0  0
   -1.6583    0.6458    0.0000 O   0  0  0  0  0  0  0  0  0  0  0  0
   -2.3375   -2.8542    0.0000 C   0  0  0  0  0  0  0  0  0  0  0  0
    3.6625    0.6458    0.0000 C   0  0  0  0  0  0  0  0  0  0  0  0
    2.3292   -1.6792    0.0000 C   0  0  0  0  0  0  0  0  0  0  0  0
   -3.6958   -0.5167    0.0000 C   0  0  0  0  0  0  0  0  0  0  0  0
    4.3417   -0.5167    0.0000 C   0  0  0  0  0  0  0  0  0  0  0  0
   -3.6708   -2.8417    0.0000 C   0  0  0  0  0  0  0  0  0  0  0  0
    3.6792   -1.7000    0.0000 C   0  0  0  0  0  0  0  0  0  0  0  0
   -4.3458   -1.6542    0.0000 C   0  0  0  0  0  0  0  0  0  0  0  0
  2  5  2  0
  3  1  1  0
  4  1  1  0
  5  4  1  0
  6  2  1  0
  7  3  2  0
  8  1  2  0
  9  6  2  0
 10  6  1  0
 11  7  1  0
 12  3  1  0
 13  2  1  0
 14  5  1  0
 15  7  1  0
 16 18  1  0
 17 12  2  0
 18 14  2  0
 19 17  1  0
 15 19  2  0
 13 16  2  0
M  END
> <chembl_id>
CHEMBL154111

> <chembl_pref_name>
SALSALATE

$$$$

     RDKit          2D

 19 21  0  0  0  0  0  0  0  0999 V2000
    4.9042   -3.5667    0.0000 N   0  0  0  0  0  0  0  0  0  0  0  0
    4.4167   -2.9042    0.0000 C   0  0  0  0  0  0  0  0  0  0  0  0
    6.1375   -2.8542    0.0000 C   0  0  0  0  0  0  0  0  0  0  0  0
    3.6292   -3.9792    0.0000 C   0  0  0  0  0  0  0  0  0  0  0  0
    6.9667   -2.8667    0.0000 N   0  0  0  0  0  0  0  0  0  0  0  0
    3.6375   -3.1542    0.0000 C   0  0  0  0  0  0  0  0  0  0  0  0
    5.7292   -3.5750    0.0000 C   0  0  0  0  0  0  0  0  0  0  0  0
    4.4167   -4.2375    0.0000 C   0  0  0  0  0  0  0  0  0  0  0  0
    7.3750   -3.5792    0.0000 C   0  0  0  0  0  0  0  0  0  0  0  0
    6.1375   -4.2917    0.0000 C   0  0  0  0  0  0  0  0  0  0  0  0
    4.6750   -2.1167    0.0000 O   0  0  0  0  0  0  0  0  0  0  0  0
    2.9167   -4.3917    0.0000 C   0  0  0  0  0  0  0  0  0  0  0  0
    5.7250   -2.1417    0.0000 O   0  0  0  0  0  0  0  0  0  0  0  0
    8.2000   -3.5792    0.0000 O   0  0  0  0  0  0  0  0  0  0  0  0
    6.9542   -4.2917    0.0000 C   0  0  0  0  0  0  0  0  0  0  0  0
    2.9042   -5.2167    0.0000 N   0  0  0  0  0  0  0  0  0  0  0  0
    2.9250   -2.7417    0.0000 C   0  0  0  0  0  0  0  0  0  0  0  0
    2.2125   -3.1542    0.0000 C   0  0  0  0  0  0  0  0  0  0  0  0
    2.2042   -3.9792    0.0000 C   0  0  0  0  0  0  0  0  0  0  0  0
  2  1  1  0
  3  7  1  0
  4  8  1  0
  5  3  1  0
  6  2  1  0
  7  1  1  0
  8  1  1  0
  9 15  1  0
 10  7  1  0
 11  2  2  0
 12  4  2  0
 13  3  2  0
 14  9  2  0
 15 10  1  0
 16 12  1  0
 17  6  2  0
 18 17  1  0
 19 12  1  0
  6  4  1  0
 18 19  2  0
  5  9  1  0
M  END
> <chembl_id>
CHEMBL848

> <chembl_pref_name>
LENALIDOMIDE

$$$$

     RDKit          2D

 11 10  0  0  0  0  0  0  0  0999 V2000
    0.7542   -1.8292    0.0000 P   0  0  0  0  0  0  0  0  0  0  0  0
    0.4000   -2.4375    0.0000 O   0  0  0  0  0  0  0  0  0  0  0  0
    1.3667   -1.4750    0.0000 O   0  0  0  0  0  0  0  0  0  0  0  0
    0.1417   -1.4750    0.0000 O   0  0  0  0  0  0  0  0  0  0  0  0
    1.1042   -2.4375    0.0000 F   0  0  0  0  0  0  0  0  0  0  0  0
   -0.4708   -1.8292    0.0000 C   0  0  0  0  0  0  0  0  0  0  0  0
    1.9792   -1.8292    0.0000 C   0  0  0  0  0  0  0  0  0  0  0  0
    2.6000   -1.4750    0.0000 C   0  0  0  0  0  0  0  0  0  0  0  0
    1.9792   -2.5375    0.0000 C   0  0  0  0  0  0  0  0  0  0  0  0
   -0.4708   -2.5375    0.0000 C   0  0  0  0  0  0  0  0  0  0  0  0
   -1.0833   -1.4750    0.0000 C   0  0  0  0  0  0  0  0  0  0  0  0
  2  1  2  0
  3  1  1  0
  4  1  1  0
  5  1  1  0
  6  4  1  0
  7  3  1  0
  8  7  1  0
  9  7  1  0
 10  6  1  0
 11  6  1  0
M  END
> <chembl_id>
CHEMBL1025

> <chembl_pref_name>
ISOFLUROPHATE

$$$$

     RDKit          2D

  9  9  0  0  0  0  0  0  0  0999 V2000
    5.8292   -4.5542    0.0000 C   0  0  0  0  0  0  0  0  0  0  0  0
    5.2167   -4.9167    0.0000 C   0  0  0  0  0  0  0  0  0  0  0  0
    5.8167   -3.8500    0.0000 O   0  0  0  0  0  0  0  0  0  0  0  0
    4.6125   -5.9917    0.0000 N   0  0  0  0  0  0  0  0  0  0  0  0
    6.4417   -4.9042    0.0000 N   0  0  0  0  0  0  0  0  0  0  0  0
    5.2292   -5.6250    0.0000 C   0  0  0  0  0  0  0  0  0  0  0  0
    4.6042   -4.5750    0.0000 C   0  0  0  0  0  0  0  0  0  0  0  0
    3.9917   -5.6500    0.0000 C   0  0  0  0  0  0  0  0  0  0  0  0
    3.9875   -4.9417    0.0000 C   0  0  0  0  0  0  0  0  0  0  0  0
  2  1  1  0
  3  1  2  0
  4  6  2  0
  5  1  1  0
  6  2  1  0
  7  2  2  0
  8  9  2  0
  9  7  1  0
  8  4  1  0
M  END
> <chembl_id>
CHEMBL1140

> <chembl_pref_name>
NIACINAMIDE

$$$$

     RDKit          2D

  8  6  0  0  0  0  0  0  0  0999 V2000
    3.5917   -3.6500    0.0000 Na  0  0  0  0  0 15  0  0  0  0  0  0
    2.2167   -3.9625    0.0000 S   0  0  0  0  0  0  0  0  0  0  0  0
    2.8292   -3.6042    0.0000 O   0  0  0  0  0  0  0  0  0  0  0  0
    1.6042   -3.6042    0.0000 C   0  0  0  0  0  0  0  0  0  0  0  0
    1.8667   -4.5750    0.0000 O   0  0  0  0  0  0  0  0  0  0  0  0
    2.5792   -4.5750    0.0000 O   0  0  0  0  0  0  0  0  0  0  0  0
    0.3750   -3.6042    0.0000 S   0  0  0  0  0  0  0  0  0  0  0  0
    0.9917   -3.9625    0.0000 C   0  0  0  0  0  0  0  0  0  0  0  0
  3  2  1  0
  4  2  1  0
  5  2  2  0
  6  2  2  0
  7  8  1  0
  8  4  1  0
M  CHG  2   1   1   3  -1
M  END
> <chembl_id>
CHEMBL975

> <chembl_pref_name>
MESNA

$$$$

     RDKit          2D

  2  1  0  0  0  0  0  0  0  0999 V2000
    0.7542    0.0500    0.0000 N   0  0  0  0  0  0  0  0  0  0  0  0
   -0.6833    0.0500    0.0000 N   0  0  0  0  0  0  0  0  0  0  0  0
  2  1  3  0
M  END
> <chembl_id>
CHEMBL142438

> <chembl_pref_name>
NITROGEN

$$$$

     RDKit          2D

 15 15  0  0  0  0  0  0  0  0999 V2000
    4.7149   -7.2428    0.0000 O   0  0  0  0  0  0  0  0  0  0  0  0
    4.0380   -5.7090    0.0000 C   0  0  0  0  0  0  0  0  0  0  0  0
    4.7149   -5.2309    0.0000 O   0  0  0  0  0  0  0  0  0  0  0  0
    3.3232   -4.4499    0.0000 N   0  0  0  0  0  0  0  0  0  0  0  0
    5.0984   -6.5091    0.0000 S   0  0  0  0  0  0  0  0  0  0  0  0
    4.0380   -4.8617    0.0000 C   0  0  0  0  0  0  0  0  0  0  0  0
    4.3031   -6.5091    0.0000 C   0  0  0  0  0  0  0  0  0  0  0  0
    5.3730   -5.7232    0.0000 C   0  0  0  0  0  0  0  0  0  0  0  0
    3.3232   -6.1209    0.0000 C   0  0  0  0  0  0  0  0  0  0  0  0
    3.6120   -5.4960    0.0000 C   0  0  0  0  0  0  0  0  0  0  0  0
    2.6131   -5.7090    0.0000 C   0  0  0  0  0  0  0  0  0  0  0  0
    2.6131   -4.8901    0.0000 C   0  0  0  0  0  0  0  0  0  0  0  0
    3.0297   -5.1410    0.0000 C   0  0  0  0  0  0  0  0  0  0  0  0
    6.1635   -5.3019    0.0000 C   0  0  0  0  0  0  0  0  0  0  0  0
    3.7918   -7.2760    0.0000 Cl  0  0  0  0  0  0  0  0  0  0  0  0
  3  2  1  0
  4  6  1  0
  5  7  1  0
  2  6  1  0
  7  2  1  0
  8  3  1  0
  9  2  1  0
 10  9  1  0
 11  9  1  0
 12 11  1  0
 13 10  1  0
  8 14  1  0
  8  5  1  0
 12  4  1  0
 13  4  1  0
M  END
> <chembl_id>
CHEMBL2218917

> <chembl_pref_name>
CEVIMELINE HYDROCHLORIDE

$$$$

     RDKit          2D

 16 16  0  0  0  0  0  0  0  0999 V2000
   -0.1250    0.0458    0.0000 C   0  0  0  0  0  0  0  0  0  0  0  0
    3.2417   -0.3167    0.0000 N   0  0  0  0  0  0  0  0  0  0  0  0
    0.5417   -0.3417    0.0000 O   0  0  0  0  0  0  0  0  0  0  0  0
    2.5667    0.0583    0.0000 C   0  0  0  0  0  0  0  0  0  0  0  0
    1.9000   -0.3250    0.0000 C   0  0  0  0  0  0  0  0  0  0  0  0
   -0.7833   -0.3417    0.0000 N   0  0  0  0  0  0  0  0  0  0  0  0
   -0.1333    0.8083    0.0000 O   0  0  0  0  0  0  0  0  0  0  0  0
    1.2167    0.0458    0.0000 C   0  0  0  0  0  0  0  0  0  0  0  0
    2.8042   -0.9542    0.0000 C   0  0  0  0  0  0  0  0  0  0  0  0
    3.8417   -0.8167    0.0000 C   0  0  0  0  0  0  0  0  0  0  0  0
    3.7917    0.2208    0.0000 C   0  0  0  0  0  0  0  0  0  0  0  0
    2.5667    0.8375    0.0000 C   0  0  0  0  0  0  0  0  0  0  0  0
    1.8792    1.2208    0.0000 C   0  0  0  0  0  0  0  0  0  0  0  0
   -1.4625    0.0458    0.0000 C   0  0  0  0  0  0  0  0  0  0  0  0
   -0.7750   -1.1167    0.0000 C   0  0  0  0  0  0  0  0  0  0  0  0
    1.2167    0.8250    0.0000 C   0  0  0  0  0  0  0  0  0  0  0  0
  2  4  1  0
  3  1  1  0
  4  5  1  0
  5  8  2  0
  6  1  1  0
  7  1  2  0
  8  3  1  0
  9  2  1  0
 10  2  1  0
 11  2  1  0
 12 13  1  0
 13 16  2  0
 14  6  1  0
 15  6  1  0
 16  8  1  0
  4 12  2  0
M  CHG  1   2   1
M  END
> <chembl_id>
CHEMBL278020

> <chembl_pref_name>
NEOSTIGMINE

$$$$

     RDKit          2D

 19 20  0  0  0  0  0  0  0  0999 V2000
    0.6792    0.4208    0.0000 C   0  0  0  0  0  0  0  0  0  0  0  0
   -0.5208   -0.2542    0.0000 N   0  0  0  0  0  0  0  0  0  0  0  0
   -2.9500   -0.2667    0.0000 C   0  0  0  0  0  0  0  0  0  0  0  0
   -1.7458    0.4000    0.0000 C   0  0  0  0  0  0  0  0  0  0  0  0
    1.8917   -0.2542    0.0000 C   0  0  0  0  0  0  0  0  0  0  0  0
   -2.9458   -1.6667    0.0000 C   0  0  0  0  0  0  0  0  0  0  0  0
    0.6792    1.8208    0.0000 C   0  0  0  0  0  0  0  0  0  0  0  0
    3.1167    0.4375    0.0000 C   0  0  0  0  0  0  0  0  0  0  0  0
   -1.6958   -2.4167    0.0000 O   0  0  0  0  0  0  0  0  0  0  0  0
    1.8875    2.5333    0.0000 C   0  0  0  0  0  0  0  0  0  0  0  0
    3.1042    1.8333    0.0000 C   0  0  0  0  0  0  0  0  0  0  0  0
    1.8917   -1.6542    0.0000 Cl  0  0  0  0  0  0  0  0  0  0  0  0
   -4.1708   -2.2167    0.0000 O   0  0  0  0  0  0  0  0  0  0  0  0
   -0.5208    2.5208    0.0000 Cl  0  0  0  0  0  0  0  0  0  0  0  0
   -4.1708    0.3958    0.0000 C   0  0  0  0  0  0  0  0  0  0  0  0
   -1.7458    1.8083    0.0000 C   0  0  0  0  0  0  0  0  0  0  0  0
    4.3417   -0.2167    0.0000 C   0  0  0  0  0  0  0  0  0  0  0  0
   -4.1833    1.8000    0.0000 C   0  0  0  0  0  0  0  0  0  0  0  0
   -2.9625    2.5208    0.0000 C   0  0  0  0  0  0  0  0  0  0  0  0
  2  1  1  0
  3  4  1  0
  4  2  1  0
  5  1  2  0
  6  3  1  0
  7  1  1  0
  8  5  1  0
  9  6  2  0
 10  7  2  0
 11 10  1  0
 12  5  1  0
 13  6  1  0
 14  7  1  0
 15  3  2  0
 16  4  2  0
 17  8  1  0
 18 19  2  0
 19 16  1  0
  8 11  2  0
 15 18  1  0
M  END
> <chembl_id>
CHEMBL509

> <chembl_pref_name>
MECLOFENAMIC ACID

$$$$

     RDKit          2D

 16 12  0  0  0  0  0  0  0  0999 V2000
    0.1753  -19.0652    0.0000 Li  0  0  0  0  0 15  0  0  0  0  0  0
    2.4781  -17.4133    0.0000 C   0  0  0  0  0  0  0  0  0  0  0  0
    3.2020  -17.8263    0.0000 C   0  0  0  0  0  0  0  0  0  0  0  0
    1.7639  -17.8263    0.0000 C   0  0  0  0  0  0  0  0  0  0  0  0
    2.0651  -16.6991    0.0000 C   0  0  0  0  0  0  0  0  0  0  0  0
    1.7639  -18.6522    0.0000 C   0  0  0  0  0  0  0  0  0  0  0  0
    3.9162  -17.4133    0.0000 C   0  0  0  0  0  0  0  0  0  0  0  0
    2.4732  -15.9752    0.0000 O   0  0  0  0  0  0  0  0  0  0  0  0
    4.6304  -17.8263    0.0000 O   0  0  0  0  0  0  0  0  0  0  0  0
    1.0498  -19.0652    0.0000 O   0  0  0  0  0  0  0  0  0  0  0  0
    1.2392  -16.7040    0.0000 O   0  0  0  0  0  0  0  0  0  0  0  0
    2.4781  -19.0652    0.0000 O   0  0  0  0  0  0  0  0  0  0  0  0
    3.9162  -16.5874    0.0000 O   0  0  0  0  0  0  0  0  0  0  0  0
    2.8862  -16.6991    0.0000 O   0  0  0  0  0  0  0  0  0  0  0  0
    3.3089  -15.8586    0.0000 Li  0  0  0  0  0 15  0  0  0  0  0  0
    5.3786  -17.8992    0.0000 Li  0  0  0  0  0 15  0  0  0  0  0  0
  3  2  1  0
  4  2  1  0
  5  2  1  0
  6  4  1  0
  7  3  1  0
  8  5  1  0
  9  7  1  0
 10  6  1  0
 11  5  2  0
 12  6  2  0
 13  7  2  0
 14  2  1  0
M  CHG  6   1   1   8  -1   9  -1  10  -1  15   1  16   1
M  END
> <chembl_id>
CHEMBL1201170

> <chembl_pref_name>
LITHIUM CITRATE

$$$$

     RDKit          2D

 19 21  0  0  0  0  0  0  0  0999 V2000
    4.0792   -4.2500    0.0000 N   0  0  0  0  0  0  0  0  0  0  0  0
    4.7542   -4.4458    0.0000 C   0  0  0  0  0  0  0  0  0  0  0  0
    4.1125   -5.4000    0.0000 C   0  0  0  0  0  0  0  0  0  0  0  0
    4.7792   -5.1625    0.0000 C   0  0  0  0  0  0  0  0  0  0  0  0
    3.6792   -4.8417    0.0000 C   0  0  0  0  0  0  0  0  0  0  0  0
    5.9792   -4.4167    0.0000 C   0  0  0  0  0  0  0  0  0  0  0  0
    5.3542   -4.0792    0.0000 C   0  0  0  0  0  0  0  0  0  0  0  0
    7.2042   -4.4042    0.0000 C   0  0  0  0  0  0  0  0  0  0  0  0
    5.3917   -5.4917    0.0000 C   0  0  0  0  0  0  0  0  0  0  0  0
    6.5875   -4.0625    0.0000 C   0  0  0  0  0  0  0  0  0  0  0  0
    3.8417   -6.0417    0.0000 C   0  0  0  0  0  0  0  0  0  0  0  0
    6.0000   -5.1250    0.0000 C   0  0  0  0  0  0  0  0  0  0  0  0
    7.2167   -5.1167    0.0000 O   0  0  0  0  0  0  0  0  0  0  0  0
    2.9792   -4.9292    0.0000 C   0  0  0  0  0  0  0  0  0  0  0  0
    3.1500   -6.1417    0.0000 C   0  0  0  0  0  0  0  0  0  0  0  0
    7.8292   -4.0417    0.0000 O   0  0  0  0  0  0  0  0  0  0  0  0
    2.7167   -5.5875    0.0000 C   0  0  0  0  0  0  0  0  0  0  0  0
    2.8750   -6.8292    0.0000 Cl  0  0  0  0  0  0  0  0  0  0  0  0
    6.5792   -3.3417    0.0000 C   0  0  0  0  0  0  0  0  0  0  0  0
  2  1  1  0
  3  5  2  0
  4  2  2  0
  5  1  1  0
  6  7  2  0
  7  2  1  0
  8 10  1  0
  9  4  1  0
 10  6  1  0
 11  3  1  0
 12  6  1  0
 13  8  2  0
 14  5  1  0
 15 17  1  0
 16  8  1  0
 17 14  2  0
 18 15  1  0
 19 10  1  0
  3  4  1  0
 15 11  2  0
 12  9  2  0
M  END
> <chembl_id>
CHEMBL1316

> <chembl_pref_name>
CARPROFEN

$$$$

     RDKit          2D

 20 22  0  0  0  0  0  0  0  0999 V2000
    6.8123  -25.1802    0.0000 N   0  0  0  0  0  0  0  0  0  0  0  0
    7.3007  -25.8428    0.0000 C   0  0  0  0  0  0  0  0  0  0  0  0
    6.8148  -26.5138    0.0000 N   0  0  0  0  0  0  0  0  0  0  0  0
    6.0303  -26.2588    0.0000 C   0  0  0  0  0  0  0  0  0  0  0  0
    5.3169  -26.6720    0.0000 N   0  0  0  0  0  0  0  0  0  0  0  0
    4.6002  -26.2607    0.0000 C   0  0  0  0  0  0  0  0  0  0  0  0
    4.6009  -25.4343    0.0000 N   0  0  0  0  0  0  0  0  0  0  0  0
    5.3190  -25.0211    0.0000 C   0  0  0  0  0  0  0  0  0  0  0  0
    6.0299  -25.4352    0.0000 C   0  0  0  0  0  0  0  0  0  0  0  0
    5.3186  -24.1973    0.0000 O   0  0  0  0  0  0  0  0  0  0  0  0
    7.1074  -27.2841    0.0000 C   0  0  0  0  0  0  0  0  0  0  0  0
    7.8901  -27.5448    0.0000 C   0  0  0  0  0  0  0  0  0  0  0  0
    7.8923  -28.3721    0.0000 C   0  0  0  0  0  0  0  0  0  0  0  0
    7.1128  -28.6189    0.0000 C   0  0  0  0  0  0  0  0  0  0  0  0
    6.6260  -27.9552    0.0000 C   0  0  0  0  0  0  0  0  0  0  0  0
    8.5618  -27.0561    0.0000 C   0  0  0  0  0  0  0  0  0  0  0  0
    8.5588  -28.8627    0.0000 C   0  0  0  0  0  0  0  0  0  0  0  0
    9.3198  -28.5271    0.0000 O   0  0  0  0  0  0  0  0  0  0  0  0
    6.8567  -29.4152    0.0000 O   0  0  0  0  0  0  0  0  0  0  0  0
    3.8777  -26.6740    0.0000 N   0  0  0  0  0  0  0  0  0  0  0  0
  1  2  2  0
  2  3  1  0
  3  4  1  0
  4  5  1  0
  5  6  2  0
  6  7  1  0
  7  8  1  0
  8  9  1  0
  1  9  1  0
  4  9  2  0
  8 10  2  0
 11 12  1  0
 12 13  1  0
 13 14  1  0
 14 15  1  0
 11 15  1  0
 12 16  2  0
 17 18  1  0
 13 17  1  6
 14 19  1  1
 11  3  1  6
  6 20  1  0
M  END
> <chembl_id>
CHEMBL713

> <chembl_pref_name>
ENTECAVIR

$$$$

     RDKit          2D

  9  8  0  0  1  0  0  0  0  0999 V2000
  -11.2554    2.8286    0.0000 C   0  0  0  0  0  0  0  0  0  0  0  0
  -10.8429    2.1141    0.0000 S   0  0  0  0  0  0  0  0  0  0  0  0
  -10.0179    2.1141    0.0000 C   0  0  0  0  0  0  0  0  0  0  0  0
   -9.6054    2.8286    0.0000 C   0  0  0  0  0  0  0  0  0  0  0  0
   -8.7804    2.8286    0.0000 C   0  0  0  0  0  0  0  0  0  0  0  0
   -8.3679    3.5430    0.0000 C   0  0  0  0  0  0  0  0  0  0  0  0
   -7.5429    3.5430    0.0000 O   0  0  0  0  0  0  0  0  0  0  0  0
   -8.7804    4.2575    0.0000 O   0  0  0  0  0  0  0  0  0  0  0  0
   -8.3679    2.1141    0.0000 N   0  0  0  0  0  0  0  0  0  0  0  0
  1  2  1  0
  2  3  1  0
  3  4  1  0
  4  5  1  0
  5  6  1  0
  6  7  1  0
  6  8  2  0
  5  9  1  1
M  END
> <chembl_id>
CHEMBL42336

> <chembl_pref_name>
METHIONINE

$$$$

     RDKit          2D

 16 18  0  0  0  0  0  0  0  0999 V2000
    5.1292   -4.2167    0.0000 C   0  0  0  0  0  0  0  0  0  0  0  0
    5.3292   -3.5292    0.0000 N   0  0  0  0  0  0  0  0  0  0  0  0
    4.5292   -5.2875    0.0000 C   0  0  0  0  0  0  0  0  0  0  0  0
    5.7042   -4.6167    0.0000 N   0  0  0  0  0  0  0  0  0  0  0  0
    3.9167   -5.6417    0.0000 C   0  0  0  0  0  0  0  0  0  0  0  0
    4.5125   -4.5792    0.0000 C   0  0  0  0  0  0  0  0  0  0  0  0
    3.9167   -6.3542    0.0000 C   0  0  0  0  0  0  0  0  0  0  0  0
    6.0542   -3.5167    0.0000 C   0  0  0  0  0  0  0  0  0  0  0  0
    5.1292   -5.6375    0.0000 C   0  0  0  0  0  0  0  0  0  0  0  0
    6.2750   -4.1917    0.0000 C   0  0  0  0  0  0  0  0  0  0  0  0
    5.1500   -6.3417    0.0000 C   0  0  0  0  0  0  0  0  0  0  0  0
    3.3000   -5.2917    0.0000 C   0  0  0  0  0  0  0  0  0  0  0  0
    4.5292   -6.7000    0.0000 C   0  0  0  0  0  0  0  0  0  0  0  0
    3.3000   -6.7167    0.0000 C   0  0  0  0  0  0  0  0  0  0  0  0
    2.6792   -5.6542    0.0000 C   0  0  0  0  0  0  0  0  0  0  0  0
    2.6792   -6.3750    0.0000 C   0  0  0  0  0  0  0  0  0  0  0  0
  2  1  2  0
  3  6  1  0
  4  1  1  0
  5  3  2  0
  6  1  1  0
  7  5  1  0
  8  2  1  0
  9  3  1  0
 10  4  1  0
 11  9  2  0
 12  5  1  0
 13 11  1  0
 14  7  1  0
 15 12  2  0
 16 15  1  0
  8 10  1  0
 13  7  2  0
 16 14  2  0
M  END
> <chembl_id>
CHEMBL761

> <chembl_pref_name>
NAPHAZOLINE

$$$$

     RDKit          2D

 12 10  0  0  0  0  0  0  0  0999 V2000
    0.5303   -1.6500    0.0000 O   0  0  0  0  0  0  0  0  0  0  0  0
    0.0000   -2.2820    0.0000 B   0  0  0  0  0  0  0  0  0  0  0  0
   -0.5303   -1.6500    0.0000 O   0  0  0  0  0  0  0  0  0  0  0  0
    0.7145   -2.6945    0.0000 O   0  0  0  0  0  0  0  0  0  0  0  0
    0.7145   -3.5195    0.0000 O   0  0  0  0  0  0  0  0  0  0  0  0
    0.0000   -3.9320    0.0000 B   0  0  0  0  0  0  0  0  0  0  0  0
    0.5303   -4.5640    0.0000 O   0  0  0  0  0  0  0  0  0  0  0  0
   -0.5303   -4.5640    0.0000 O   0  0  0  0  0  0  0  0  0  0  0  0
   -0.7145   -3.5195    0.0000 O   0  0  0  0  0  0  0  0  0  0  0  0
   -0.7145   -2.6945    0.0000 O   0  0  0  0  0  0  0  0  0  0  0  0
    0.0000    0.0000    0.0000 Na  0  0  0  0  0 15  0  0  0  0  0  0
    1.0018    0.0000    0.0000 Na  0  0  0  0  0 15  0  0  0  0  0  0
  1  2  1  0
  2  3  1  0
  2  4  1  0
  4  5  1  0
  5  6  1  0
  6  7  1  0
  6  8  1  0
  6  9  1  0
  9 10  1  0
  2 10  1  0
M  CHG  4   2  -1   6  -1  11   1  12   1
M  END
> <chembl_id>
CHEMBL3707333

> <chembl_pref_name>
SODIUM PERBORATE

$$$$

     RDKit          2D

 14 14  0  0  0  0  0  0  0  0999 V2000
   -1.1208    1.1083    0.0000 C   0  0  0  0  0  0  0  0  0  0  0  0
   -1.1208    2.0458    0.0000 C   0  0  0  0  0  0  0  0  0  0  0  0
   -0.3083    0.6333    0.0000 C   0  0  0  0  0  0  0  0  0  0  0  0
    0.5000    1.1083    0.0000 C   0  0  0  0  0  0  0  0  0  0  0  0
   -0.3083    2.5208    0.0000 C   0  0  0  0  0  0  0  0  0  0  0  0
   -1.9458    0.6208    0.0000 O   0  0  0  0  0  0  0  0  0  0  0  0
    0.5000    2.0458    0.0000 C   0  0  0  0  0  0  0  0  0  0  0  0
   -0.3083    3.4458    0.0000 O   0  0  0  0  0  0  0  0  0  0  0  0
   -0.3083   -0.3167    0.0000 C   0  0  0  0  0  0  0  0  0  0  0  0
    0.5000   -0.7750    0.0000 C   0  0  0  0  0  0  0  0  0  0  0  0
    1.3125   -3.1292    0.0000 C   0  0  0  0  0  0  0  0  0  0  0  0
    1.3125   -2.1792    0.0000 C   0  0  0  0  0  0  0  0  0  0  0  0
    0.5000   -1.7167    0.0000 C   0  0  0  0  0  0  0  0  0  0  0  0
    2.1167   -3.5875    0.0000 C   0  0  0  0  0  0  0  0  0  0  0  0
  2  1  1  0
  3  1  2  0
  4  3  1  0
  5  2  2  0
  6  1  1  0
  7  4  2  0
  8  5  1  0
  9  3  1  0
 10  9  1  0
 11 12  1  0
 12 13  1  0
 13 10  1  0
 14 11  1  0
  5  7  1  0
M  END
> <chembl_id>
CHEMBL443605

> <chembl_pref_name>
HEXYLRESORCINOL

$$$$

     RDKit          2D

  7  7  0  0  0  0  0  0  0  0999 V2000
    4.6500   -4.8292    0.0000 C   0  0  0  0  0  0  0  0  0  0  0  0
    5.2167   -4.4167    0.0000 N   0  0  0  0  0  0  0  0  0  0  0  0
    4.8750   -5.5042    0.0000 N   0  0  0  0  0  0  0  0  0  0  0  0
    5.5792   -5.5042    0.0000 C   0  0  0  0  0  0  0  0  0  0  0  0
    5.7917   -4.8250    0.0000 C   0  0  0  0  0  0  0  0  0  0  0  0
    3.9667   -4.6167    0.0000 S   0  0  0  0  0  0  0  0  0  0  0  0
    5.2125   -3.7042    0.0000 C   0  0  0  0  0  0  0  0  0  0  0  0
  2  1  1  0
  3  1  2  0
  4  3  1  0
  5  2  1  0
  6  1  1  0
  7  2  1  0
  4  5  2  0
M  END
> <chembl_id>
CHEMBL1515

> <chembl_pref_name>
METHIMAZOLE

$$$$

     RDKit          2D

 21 23  0  0  0  0  0  0  0  0999 V2000
   -1.1000   -0.4667    0.0000 N   0  0  0  0  0  0  0  0  0  0  0  0
   -1.6875    0.3208    0.0000 C   0  0  0  0  0  0  0  0  0  0  0  0
   -1.6833   -1.2667    0.0000 C   0  0  0  0  0  0  0  0  0  0  0  0
   -2.6250    0.0208    0.0000 C   0  0  0  0  0  0  0  0  0  0  0  0
   -2.6250   -0.9625    0.0000 C   0  0  0  0  0  0  0  0  0  0  0  0
    3.2917    0.4250    0.0000 C   0  0  0  0  0  0  0  0  0  0  0  0
   -0.1208   -0.4667    0.0000 C   0  0  0  0  0  0  0  0  0  0  0  0
   -1.3833    1.2583    0.0000 O   0  0  0  0  0  0  0  0  0  0  0  0
    2.8125   -0.4375    0.0000 C   0  0  0  0  0  0  0  0  0  0  0  0
    1.8167   -0.4292    0.0000 C   0  0  0  0  0  0  0  0  0  0  0  0
    2.7875    1.3208    0.0000 O   0  0  0  0  0  0  0  0  0  0  0  0
    0.3667   -1.3000    0.0000 C   0  0  0  0  0  0  0  0  0  0  0  0
    0.3292    0.3875    0.0000 C   0  0  0  0  0  0  0  0  0  0  0  0
    1.3167    0.3875    0.0000 C   0  0  0  0  0  0  0  0  0  0  0  0
    1.3542   -1.2917    0.0000 C   0  0  0  0  0  0  0  0  0  0  0  0
    4.2375    0.3333    0.0000 O   0  0  0  0  0  0  0  0  0  0  0  0
   -3.4833    0.5208    0.0000 C   0  0  0  0  0  0  0  0  0  0  0  0
   -3.4833   -1.4667    0.0000 C   0  0  0  0  0  0  0  0  0  0  0  0
    3.3167   -1.2542    0.0000 C   0  0  0  0  0  0  0  0  0  0  0  0
   -4.3458    0.0208    0.0000 C   0  0  0  0  0  0  0  0  0  0  0  0
   -4.3458   -0.9625    0.0000 C   0  0  0  0  0  0  0  0  0  0  0  0
  2  1  1  0
  3  1  1  0
  4  2  1  0
  5  3  1  0
  6  9  1  0
  7  1  1  0
  8  2  2  0
  9 10  1  0
 10 14  1  0
 11  6  2  0
 12  7  2  0
 13  7  1  0
 14 13  2  0
 15 12  1  0
 16  6  1  0
 17  4  1  0
 18  5  1  0
 19  9  1  0
 20 17  2  0
 21 18  2  0
  4  5  2  0
 15 10  2  0
 20 21  1  0
M  END
> <chembl_id>
CHEMBL15870

> <chembl_pref_name>
INDOPROFEN

$$$$

     RDKit          2D

 21 22  0  0  0  0  0  0  0  0999 V2000
    5.2792   -4.2792    0.0000 C   0  0  0  0  0  0  0  0  0  0  0  0
    5.9000   -4.6292    0.0000 C   0  0  0  0  0  0  0  0  0  0  0  0
    4.6792   -4.6417    0.0000 N   0  0  0  0  0  0  0  0  0  0  0  0
    5.2750   -3.5667    0.0000 O   0  0  0  0  0  0  0  0  0  0  0  0
    4.0542   -4.2875    0.0000 C   0  0  0  0  0  0  0  0  0  0  0  0
    6.5125   -4.2583    0.0000 C   0  0  0  0  0  0  0  0  0  0  0  0
    2.2167   -5.3792    0.0000 N   0  0  0  0  0  0  0  0  0  0  0  0
    5.9042   -5.3292    0.0000 C   0  0  0  0  0  0  0  0  0  0  0  0
    3.4417   -4.6500    0.0000 C   0  0  0  0  0  0  0  0  0  0  0  0
    4.6792   -5.3417    0.0000 C   0  0  0  0  0  0  0  0  0  0  0  0
    6.5250   -5.6792    0.0000 O   0  0  0  0  0  0  0  0  0  0  0  0
    2.2042   -4.6667    0.0000 C   0  0  0  0  0  0  0  0  0  0  0  0
    2.8375   -5.7167    0.0000 C   0  0  0  0  0  0  0  0  0  0  0  0
    6.5042   -3.5542    0.0000 C   0  0  0  0  0  0  0  0  0  0  0  0
    7.1292   -4.6042    0.0000 C   0  0  0  0  0  0  0  0  0  0  0  0
    2.8292   -4.3042    0.0000 C   0  0  0  0  0  0  0  0  0  0  0  0
    3.4417   -5.3542    0.0000 C   0  0  0  0  0  0  0  0  0  0  0  0
    4.0750   -5.7042    0.0000 C   0  0  0  0  0  0  0  0  0  0  0  0
    7.1167   -3.1917    0.0000 C   0  0  0  0  0  0  0  0  0  0  0  0
    7.7417   -4.2417    0.0000 C   0  0  0  0  0  0  0  0  0  0  0  0
    7.7375   -3.5417    0.0000 C   0  0  0  0  0  0  0  0  0  0  0  0
  2  1  1  0
  3  1  1  0
  4  1  2  0
  5  3  1  0
  6  2  1  0
  7 13  1  0
  8  2  1  0
  9  5  1  0
 10  3  1  0
 11  8  1  0
 12 16  1  0
 13 17  2  0
 14  6  1  0
 15  6  2  0
 16  9  2  0
 17  9  1  0
 18 10  1  0
 19 14  2  0
 20 15  1  0
 21 20  2  0
  7 12  2  0
 21 19  1  0
M  END
> <chembl_id>
CHEMBL1200604

> <chembl_pref_name>
TROPICAMIDE

$$$$

     RDKit          2D

 18 20  0  0  0  0  0  0  0  0999 V2000
   -1.2708    1.0000    0.0000 C   0  0  0  0  0  0  0  0  0  0  0  0
   -1.1583   -0.9167    0.0000 C   0  0  0  0  0  0  0  0  0  0  0  0
   -0.5458    0.0958    0.0000 C   0  0  0  0  0  0  0  0  0  0  0  0
   -2.3833    0.5583    0.0000 C   0  0  0  0  0  0  0  0  0  0  0  0
   -2.3708   -0.6250    0.0000 C   0  0  0  0  0  0  0  0  0  0  0  0
    0.6542    0.0958    0.0000 C   0  0  0  0  0  0  0  0  0  0  0  0
   -0.9583    2.1500    0.0000 O   0  0  0  0  0  0  0  0  0  0  0  0
   -0.7250   -2.0417    0.0000 O   0  0  0  0  0  0  0  0  0  0  0  0
    1.2417    1.1250    0.0000 C   0  0  0  0  0  0  0  0  0  0  0  0
    1.2625   -0.9167    0.0000 C   0  0  0  0  0  0  0  0  0  0  0  0
    3.0417    0.1000    0.0000 C   0  0  0  0  0  0  0  0  0  0  0  0
    2.4417   -0.9167    0.0000 C   0  0  0  0  0  0  0  0  0  0  0  0
    2.4292    1.1250    0.0000 C   0  0  0  0  0  0  0  0  0  0  0  0
    4.2125    0.1000    0.0000 F   0  0  0  0  0  0  0  0  0  0  0  0
   -3.3833    1.0958    0.0000 C   0  0  0  0  0  0  0  0  0  0  0  0
   -3.3000   -1.2667    0.0000 C   0  0  0  0  0  0  0  0  0  0  0  0
   -4.3458   -0.6917    0.0000 C   0  0  0  0  0  0  0  0  0  0  0  0
   -4.3458    0.4458    0.0000 C   0  0  0  0  0  0  0  0  0  0  0  0
  2  3  1  0
  3  1  1  0
  4  1  1  0
  5  4  2  0
  6  3  1  0
  7  1  2  0
  8  2  2  0
  9  6  1  0
 10  6  2  0
 11 12  2  0
 12 10  1  0
 13  9  2  0
 14 11  1  0
 15  4  1  0
 16  5  1  0
 17 18  1  0
 18 15  2  0
  2  5  1  0
 16 17  2  0
 13 11  1  0
M  END
> <chembl_id>
CHEMBL24924

> <chembl_pref_name>
FLUINDIONE

$$$$

  SciTegic12091219252D

  7  6  0  0  0  0            999 V2000
    2.7365   -0.7459    0.0000 C   0  0
    2.0149   -1.1576    0.0000 C   0  0  1  0  0  0
    2.7365    0.0823    0.0000 O   0  0
    2.0149   -1.9810    0.0000 N   0  0
    3.4534   -1.1576    0.0000 O   0  0
    0.5910   -1.1576    0.0000 S   0  0
    1.3029   -0.7459    0.0000 C   0  0
  2  1  1  0
  3  1  2  0
  2  4  1  1
  5  1  1  0
  6  7  1  0
  7  2  1  0
M  END
> <chembl_id>
CHEMBL863

> <chembl_pref_name>
CYSTEINE

$$$$

     RDKit          2D

 21 22  0  0  0  0  0  0  0  0999 V2000
    7.8667   -5.0375    0.0000 N   0  0  0  0  0  0  0  0  0  0  0  0
    6.0250   -4.6792    0.0000 C   0  0  0  0  0  0  0  0  0  0  0  0
    6.6417   -5.0250    0.0000 C   0  0  0  0  0  0  0  0  0  0  0  0
    5.4042   -5.0167    0.0000 C   0  0  0  0  0  0  0  0  0  0  0  0
    6.0292   -3.9667    0.0000 O   0  0  0  0  0  0  0  0  0  0  0  0
    7.2625   -4.6667    0.0000 C   0  0  0  0  0  0  0  0  0  0  0  0
    5.4000   -5.7292    0.0000 C   0  0  0  0  0  0  0  0  0  0  0  0
    4.8042   -4.6667    0.0000 C   0  0  0  0  0  0  0  0  0  0  0  0
    4.1792   -5.7250    0.0000 C   0  0  0  0  0  0  0  0  0  0  0  0
    4.7917   -6.0792    0.0000 C   0  0  0  0  0  0  0  0  0  0  0  0
    4.1875   -5.0042    0.0000 C   0  0  0  0  0  0  0  0  0  0  0  0
    3.5542   -6.0750    0.0000 O   0  0  0  0  0  0  0  0  0  0  0  0
    8.4917   -4.6792    0.0000 C   0  0  0  0  0  0  0  0  0  0  0  0
    7.8750   -5.7542    0.0000 C   0  0  0  0  0  0  0  0  0  0  0  0
    2.9417   -5.7167    0.0000 C   0  0  0  0  0  0  0  0  0  0  0  0
    2.3292   -6.0667    0.0000 C   0  0  0  0  0  0  0  0  0  0  0  0
    1.7125   -5.7042    0.0000 C   0  0  0  0  0  0  0  0  0  0  0  0
    8.4792   -6.1042    0.0000 C   0  0  0  0  0  0  0  0  0  0  0  0
    9.1042   -5.0417    0.0000 C   0  0  0  0  0  0  0  0  0  0  0  0
    1.0917   -6.0625    0.0000 C   0  0  0  0  0  0  0  0  0  0  0  0
    9.1000   -5.7542    0.0000 C   0  0  0  0  0  0  0  0  0  0  0  0
  2  3  1  0
  3  6  1  0
  4  2  1  0
  5  2  2  0
  6  1  1  0
  7  4  1  0
  8  4  2  0
  9 11  2  0
 10  7  2  0
 11  8  1  0
 12  9  1  0
 13  1  1  0
 14  1  1  0
 15 12  1  0
 16 15  1  0
 17 16  1  0
 18 14  1  0
 19 13  1  0
 20 17  1  0
 21 19  1  0
 21 18  1  0
  9 10  1  0
M  END
> <chembl_id>
CHEMBL1201217

> <chembl_pref_name>
DYCLONINE

$$$$

     RDKit          2D

 22 24  0  0  0  0  0  0  0  0999 V2000
   -0.5333    0.2125    0.0000 N   0  0  0  0  0  0  0  0  0  0  0  0
    0.7125    0.7708    0.0000 C   0  0  0  0  0  0  0  0  0  0  0  0
   -1.7458    0.8250    0.0000 C   0  0  0  0  0  0  0  0  0  0  0  0
   -0.5125   -1.1750    0.0000 C   0  0  0  0  0  0  0  0  0  0  0  0
    1.0542    2.1125    0.0000 C   0  0  0  0  0  0  0  0  0  0  0  0
   -2.0000    2.1458    0.0000 C   0  0  0  0  0  0  0  0  0  0  0  0
    0.7625   -1.8042    0.0000 C   0  0  0  0  0  0  0  0  0  0  0  0
    0.2042    3.1833    0.0000 C   0  0  0  0  0  0  0  0  0  0  0  0
   -1.1458    3.1833    0.0000 C   0  0  0  0  0  0  0  0  0  0  0  0
    1.9917   -1.1375    0.0000 C   0  0  0  0  0  0  0  0  0  0  0  0
    3.1542   -1.8250    0.0000 N   0  0  0  0  0  0  0  0  0  0  0  0
   -2.7833   -0.0667    0.0000 C   0  0  0  0  0  0  0  0  0  0  0  0
    1.7167   -0.1542    0.0000 C   0  0  0  0  0  0  0  0  0  0  0  0
    2.3792    2.5458    0.0000 C   0  0  0  0  0  0  0  0  0  0  0  0
   -3.3000    2.5833    0.0000 C   0  0  0  0  0  0  0  0  0  0  0  0
    0.7917   -3.1792    0.0000 C   0  0  0  0  0  0  0  0  0  0  0  0
    4.3417   -1.1542    0.0000 C   0  0  0  0  0  0  0  0  0  0  0  0
    3.1542   -3.1792    0.0000 C   0  0  0  0  0  0  0  0  0  0  0  0
   -4.0833    0.3833    0.0000 C   0  0  0  0  0  0  0  0  0  0  0  0
    3.0417    0.2125    0.0000 C   0  0  0  0  0  0  0  0  0  0  0  0
   -4.3458    1.6833    0.0000 C   0  0  0  0  0  0  0  0  0  0  0  0
    3.3542    1.5750    0.0000 C   0  0  0  0  0  0  0  0  0  0  0  0
  2  1  1  0
  3  1  1  0
  4  1  1  0
  5  2  2  0
  6  3  2  0
  7  4  1  0
  8  5  1  0
  9  6  1  0
 10  7  1  0
 11 10  1  0
 12  3  1  0
 13  2  1  0
 14  5  1  0
 15  6  1  0
 16  7  1  0
 17 11  1  0
 18 11  1  0
 19 12  2  0
 20 13  2  0
 21 19  1  0
 22 20  1  0
  8  9  1  0
 15 21  2  0
 14 22  2  0
M  END
> <chembl_id>
CHEMBL644

> <chembl_pref_name>
TRIMIPRAMINE

$$$$

     RDKit          2D

 18 19  0  0  0  0  0  0  0  0999 V2000
   -2.3458   -0.2417    0.0000 C   0  0  0  0  0  0  0  0  0  0  0  0
   -2.3708    0.7625    0.0000 N   0  0  0  0  0  0  0  0  0  0  0  0
   -0.7708    0.3208    0.0000 N   0  0  0  0  0  0  0  0  0  0  0  0
   -3.1833   -0.8792    0.0000 N   0  0  0  0  0  0  0  0  0  0  0  0
   -1.3458   -0.5250    0.0000 C   0  0  0  0  0  0  0  0  0  0  0  0
   -1.4083    1.1375    0.0000 C   0  0  0  0  0  0  0  0  0  0  0  0
    3.3917    0.3208    0.0000 N   0  0  0  0  0  0  0  0  0  0  0  0
    0.2792    0.3208    0.0000 C   0  0  0  0  0  0  0  0  0  0  0  0
    2.3542    0.3208    0.0000 C   0  0  0  0  0  0  0  0  0  0  0  0
   -3.0708   -1.9042    0.0000 O   0  0  0  0  0  0  0  0  0  0  0  0
    3.9167    1.2208    0.0000 O   0  0  0  0  0  0  0  0  0  0  0  0
   -4.1458   -0.4542    0.0000 O   0  0  0  0  0  0  0  0  0  0  0  0
    3.9167   -0.5667    0.0000 O   0  0  0  0  0  0  0  0  0  0  0  0
    0.7792    1.2208    0.0000 C   0  0  0  0  0  0  0  0  0  0  0  0
    0.7792   -0.5667    0.0000 C   0  0  0  0  0  0  0  0  0  0  0  0
    1.8375    1.2208    0.0000 C   0  0  0  0  0  0  0  0  0  0  0  0
    1.8375   -0.5667    0.0000 C   0  0  0  0  0  0  0  0  0  0  0  0
   -1.1458    2.1625    0.0000 C   0  0  0  0  0  0  0  0  0  0  0  0
  2  1  1  0
  3  5  1  0
  4  1  1  0
  5  1  2  0
  6  2  2  0
  7  9  1  0
  8  3  1  0
  9 17  2  0
 10  4  1  0
 11  7  1  0
 12  4  2  0
 13  7  2  0
 14  8  1  0
 15  8  2  0
 16 14  2  0
 17 15  1  0
 18  6  1  0
  3  6  1  0
 16  9  1  0
M  CHG  4   4   1   7   1  10  -1  11  -1
M  END
> <chembl_id>
CHEMBL1909285

> <chembl_pref_name>
NITREFAZOLE

$$$$

     RDKit          2D

 19 20  0  0  0  0  0  0  0  0999 V2000
   -8.5788    2.5486    0.0000 C   0  0  0  0  0  0  0  0  0  0  0  0
   -9.2933    2.1360    0.0000 C   0  0  0  0  0  0  0  0  0  0  0  0
   -9.2933    1.3110    0.0000 C   0  0  0  0  0  0  0  0  0  0  0  0
   -8.5788    0.8985    0.0000 C   0  0  0  0  0  0  0  0  0  0  0  0
   -7.8644    1.3110    0.0000 C   0  0  0  0  0  0  0  0  0  0  0  0
   -7.8644    2.1360    0.0000 C   0  0  0  0  0  0  0  0  0  0  0  0
   -5.0065    3.7861    0.0000 C   0  0  0  0  0  0  0  0  0  0  0  0
   -5.7210    3.3735    0.0000 C   0  0  0  0  0  0  0  0  0  0  0  0
   -5.7210    2.5485    0.0000 C   0  0  0  0  0  0  0  0  0  0  0  0
   -5.0065    2.1360    0.0000 C   0  0  0  0  0  0  0  0  0  0  0  0
   -4.2920    2.5485    0.0000 C   0  0  0  0  0  0  0  0  0  0  0  0
   -4.2920    3.3735    0.0000 C   0  0  0  0  0  0  0  0  0  0  0  0
   -7.1498    2.5485    0.0000 C   0  0  0  0  0  0  0  0  0  0  0  0
   -6.4353    2.1360    0.0000 C   0  0  0  0  0  0  0  0  0  0  0  0
   -4.9953    4.6064    0.0000 O   0  0  0  0  0  0  0  0  0  0  0  0
   -3.4451    1.9953    0.0000 O   0  0  0  0  0  0  0  0  0  0  0  0
   -3.6246    3.8585    0.0000 C   0  0  0  0  0  0  0  0  0  0  0  0
   -3.6134    4.6984    0.0000 C   0  0  0  0  0  0  0  0  0  0  0  0
   -2.8709    3.5229    0.0000 C   0  0  0  0  0  0  0  0  0  0  0  0
  1  2  1  0
  2  3  2  0
  3  4  1  0
  4  5  2  0
  5  6  1  0
  1  6  2  0
  7  8  1  0
  8  9  2  0
  9 10  1  0
 10 11  2  0
 11 12  1  0
  7 12  2  0
  6 13  1  0
 13 14  2  0
 14  9  1  0
  7 15  1  0
 11 16  1  0
 12 17  1  0
 17 18  1  0
 17 19  1  0
M  END
> <chembl_id>
CHEMBL259571

> <chembl_pref_name>
TAPINAROF

$$$$

     RDKit          2D

 21 23  0  0  0  0  0  0  0  0999 V2000
    3.4417   -2.7417    0.0000 N   0  0  0  0  0  0  0  0  0  0  0  0
    1.3292   -2.7417    0.0000 C   0  0  0  0  0  0  0  0  0  0  0  0
    2.0292   -2.7417    0.0000 C   0  0  0  0  0  0  0  0  0  0  0  0
    0.9792   -3.3542    0.0000 C   0  0  0  0  0  0  0  0  0  0  0  0
    0.9792   -2.1417    0.0000 C   0  0  0  0  0  0  0  0  0  0  0  0
    2.3792   -3.3542    0.0000 C   0  0  0  0  0  0  0  0  0  0  0  0
    2.3792   -2.1417    0.0000 C   0  0  0  0  0  0  0  0  0  0  0  0
    3.0917   -3.3542    0.0000 C   0  0  0  0  0  0  0  0  0  0  0  0
    3.0917   -2.1417    0.0000 C   0  0  0  0  0  0  0  0  0  0  0  0
    4.0542   -3.0917    0.0000 C   0  0  0  0  0  0  0  0  0  0  0  0
    4.0542   -2.3792    0.0000 C   0  0  0  0  0  0  0  0  0  0  0  0
    0.2792   -2.1417    0.0000 C   0  0  0  0  0  0  0  0  0  0  0  0
    1.3292   -3.9542    0.0000 C   0  0  0  0  0  0  0  0  0  0  0  0
    0.2792   -3.3542    0.0000 C   0  0  0  0  0  0  0  0  0  0  0  0
    1.3292   -1.5417    0.0000 C   0  0  0  0  0  0  0  0  0  0  0  0
   -0.0833   -1.5417    0.0000 C   0  0  0  0  0  0  0  0  0  0  0  0
    0.9792   -4.5667    0.0000 C   0  0  0  0  0  0  0  0  0  0  0  0
   -0.0833   -3.9542    0.0000 C   0  0  0  0  0  0  0  0  0  0  0  0
    0.9792   -0.9292    0.0000 C   0  0  0  0  0  0  0  0  0  0  0  0
    0.2792   -0.9292    0.0000 C   0  0  0  0  0  0  0  0  0  0  0  0
    0.2792   -4.5667    0.0000 C   0  0  0  0  0  0  0  0  0  0  0  0
  2  3  2  0
  3  6  1  0
  4  2  1  0
  5  2  1  0
  6  8  1  0
  7  9  1  0
  8  1  1  0
  9  1  1  0
 10  1  1  0
 11  1  1  0
 12  5  1  0
 13  4  1  0
 14  4  2  0
 15  5  2  0
 16 12  2  0
 17 13  2  0
 18 14  1  0
 19 15  1  0
 20 16  1  0
 21 18  2  0
  3  7  1  0
 19 20  2  0
 17 21  1  0
M  CHG  1   1   1
M  END
> <chembl_id>
CHEMBL1201340

> <chembl_pref_name>
DIPHEMANIL

$$$$

     RDKit          2D

 17 19  0  0  0  0  0  0  0  0999 V2000
    5.3917   -5.6750    0.0000 C   0  0  0  0  0  0  0  0  0  0  0  0
    5.3917   -6.8167    0.0000 C   0  0  0  0  0  0  0  0  0  0  0  0
    4.9792   -6.2500    0.0000 C   0  0  0  0  0  0  0  0  0  0  0  0
    6.0667   -5.8917    0.0000 C   0  0  0  0  0  0  0  0  0  0  0  0
    6.0667   -6.5917    0.0000 C   0  0  0  0  0  0  0  0  0  0  0  0
    5.1667   -5.0000    0.0000 O   0  0  0  0  0  0  0  0  0  0  0  0
    5.1667   -7.4917    0.0000 O   0  0  0  0  0  0  0  0  0  0  0  0
    4.2667   -6.2500    0.0000 C   0  0  0  0  0  0  0  0  0  0  0  0
    6.6875   -5.5375    0.0000 C   0  0  0  0  0  0  0  0  0  0  0  0
    6.6875   -6.9542    0.0000 C   0  0  0  0  0  0  0  0  0  0  0  0
    3.9167   -5.6292    0.0000 C   0  0  0  0  0  0  0  0  0  0  0  0
    3.9167   -6.8542    0.0000 C   0  0  0  0  0  0  0  0  0  0  0  0
    7.3042   -5.8917    0.0000 C   0  0  0  0  0  0  0  0  0  0  0  0
    7.3042   -6.5917    0.0000 C   0  0  0  0  0  0  0  0  0  0  0  0
    3.2000   -5.6292    0.0000 C   0  0  0  0  0  0  0  0  0  0  0  0
    3.2000   -6.8542    0.0000 C   0  0  0  0  0  0  0  0  0  0  0  0
    2.8417   -6.2500    0.0000 C   0  0  0  0  0  0  0  0  0  0  0  0
  2  3  1  0
  3  1  1  0
  4  1  1  0
  5  4  2  0
  6  1  2  0
  7  2  2  0
  8  3  1  0
  9  4  1  0
 10  5  1  0
 11  8  2  0
 12  8  1  0
 13  9  2  0
 14 13  1  0
 15 11  1  0
 16 12  2  0
 17 16  1  0
  5  2  1  0
 14 10  2  0
 17 15  2  0
M  END
> <chembl_id>
CHEMBL711

> <chembl_pref_name>
PHENINDIONE

$$$$

     RDKit          2D

 20 22  0  0  0  0  0  0  0  0999 V2000
    4.7292   -4.9792    0.0000 N   0  0  0  0  0  0  0  0  0  0  0  0
    5.3417   -5.3292    0.0000 C   0  0  0  0  0  0  0  0  0  0  0  0
    4.7292   -6.4167    0.0000 S   0  0  0  0  0  0  0  0  0  0  0  0
    4.1292   -5.3292    0.0000 C   0  0  0  0  0  0  0  0  0  0  0  0
    5.3417   -6.0625    0.0000 C   0  0  0  0  0  0  0  0  0  0  0  0
    4.1292   -6.0625    0.0000 C   0  0  0  0  0  0  0  0  0  0  0  0
    5.9667   -4.9792    0.0000 N   0  0  0  0  0  0  0  0  0  0  0  0
    4.7292   -4.2750    0.0000 C   0  0  0  0  0  0  0  0  0  0  0  0
    5.3417   -3.9125    0.0000 C   0  0  0  0  0  0  0  0  0  0  0  0
    6.5750   -3.8792    0.0000 N   0  0  0  0  0  0  0  0  0  0  0  0
    3.5292   -4.9792    0.0000 C   0  0  0  0  0  0  0  0  0  0  0  0
    5.9667   -6.4167    0.0000 C   0  0  0  0  0  0  0  0  0  0  0  0
    3.5292   -6.4167    0.0000 C   0  0  0  0  0  0  0  0  0  0  0  0
    5.9667   -4.2500    0.0000 C   0  0  0  0  0  0  0  0  0  0  0  0
    6.5625   -5.3292    0.0000 C   0  0  0  0  0  0  0  0  0  0  0  0
    6.5375   -3.1792    0.0000 C   0  0  0  0  0  0  0  0  0  0  0  0
    7.2042   -4.2292    0.0000 C   0  0  0  0  0  0  0  0  0  0  0  0
    6.5625   -6.0625    0.0000 C   0  0  0  0  0  0  0  0  0  0  0  0
    2.9375   -5.3042    0.0000 C   0  0  0  0  0  0  0  0  0  0  0  0
    2.9375   -6.0875    0.0000 C   0  0  0  0  0  0  0  0  0  0  0  0
  2  1  1  0
  3  6  1  0
  4  1  1  0
  5  2  2  0
  6  4  2  0
  7  2  1  0
  8  1  1  0
  9  8  1  0
 10 14  1  0
 11  4  1  0
 12  5  1  0
 13  6  1  0
 14  9  1  0
 15  7  2  0
 16 10  1  0
 17 10  1  0
 18 15  1  0
 19 11  2  0
 20 19  1  0
  5  3  1  0
 13 20  2  0
 12 18  2  0
M  END
> <chembl_id>
CHEMBL2111030

> <chembl_pref_name>
PROTHIPENDYL

$$$$

     RDKit          2D

 14 13  0  0  0  0  0  0  0  0999 V2000
    5.0972   -0.1587    0.0000 O   0  0  0  0  0  0  0  0  0  0  0  0
    2.9538    1.9038    0.0000 N   0  0  0  0  0  0  0  0  0  0  0  0
    3.6682   -0.1587    0.0000 C   0  0  0  0  0  0  0  0  0  0  0  0
    4.3827   -0.5712    0.0000 C   0  0  0  0  0  0  0  0  0  0  0  0
    3.6682    0.6663    0.0000 C   0  0  0  0  0  0  0  0  0  0  0  0
    2.9538   -0.5712    0.0000 C   0  0  0  0  0  0  0  0  0  0  0  0
    4.3827   -1.3962    0.0000 C   0  0  0  0  0  0  0  0  0  0  0  0
    2.9538    1.0788    0.0000 C   0  0  0  0  0  0  0  0  0  0  0  0
    2.9538   -1.3962    0.0000 C   0  0  0  0  0  0  0  0  0  0  0  0
    3.6682   -1.8087    0.0000 C   0  0  0  0  0  0  0  0  0  0  0  0
    2.2393    0.6663    0.0000 C   0  0  0  0  0  0  0  0  0  0  0  0
    5.8116   -0.5712    0.0000 C   0  0  0  0  0  0  0  0  0  0  0  0
    2.2393    2.3163    0.0000 C   0  0  0  0  0  0  0  0  0  0  0  0
    0.0000    0.0000    0.0000 Cl  0  0  0  0  0  0  0  0  0  0  0  0
  1  4  1  0
  1 12  1  0
  2  8  1  0
  2 13  1  0
  3  4  2  0
  3  5  1  0
  3  6  1  0
  4  7  1  0
  5  8  1  0
  6  9  2  0
  7 10  2  0
  8 11  1  0
  9 10  1  0
M  END
> <chembl_id>
CHEMBL1985928

> <chembl_pref_name>
METHOXYPHENAMINE HYDROCHLORIDE

$$$$

     RDKit          2D

 17 18  0  0  0  0  0  0  0  0999 V2000
    6.4667   -6.0375    0.0000 C   0  0  0  0  0  0  0  0  0  0  0  0
    7.1750   -6.0417    0.0000 N   0  0  0  0  0  0  0  0  0  0  0  0
    6.2417   -5.3667    0.0000 N   0  0  0  0  0  0  0  0  0  0  0  0
    3.6042   -4.2292    0.0000 C   0  0  0  0  0  0  0  0  0  0  0  0
    2.9917   -4.5667    0.0000 N   0  0  0  0  0  0  0  0  0  0  0  0
    7.4000   -5.3792    0.0000 C   0  0  0  0  0  0  0  0  0  0  0  0
    6.8167   -4.9542    0.0000 C   0  0  0  0  0  0  0  0  0  0  0  0
    4.1792   -4.6542    0.0000 O   0  0  0  0  0  0  0  0  0  0  0  0
    5.5667   -5.1542    0.0000 N   0  0  0  0  0  0  0  0  0  0  0  0
    3.8292   -3.5625    0.0000 C   0  0  0  0  0  0  0  0  0  0  0  0
    4.7542   -4.2417    0.0000 C   0  0  0  0  0  0  0  0  0  0  0  0
    5.4250   -4.4542    0.0000 C   0  0  0  0  0  0  0  0  0  0  0  0
    4.5417   -3.5625    0.0000 C   0  0  0  0  0  0  0  0  0  0  0  0
    2.9792   -5.2792    0.0000 O   0  0  0  0  0  0  0  0  0  0  0  0
    2.3750   -4.2250    0.0000 O   0  0  0  0  0  0  0  0  0  0  0  0
    6.0500   -6.6167    0.0000 O   0  0  0  0  0  0  0  0  0  0  0  0
    8.0750   -5.1625    0.0000 O   0  0  0  0  0  0  0  0  0  0  0  0
  2  1  1  0
  3  1  1  0
  4  8  1  0
  5  4  1  0
  6  2  1  0
  7  3  1  0
  8 11  1  0
  9  3  1  0
 10 13  1  0
 11 12  1  0
 12  9  2  0
 13 11  2  0
 14  5  1  0
 15  5  2  0
 16  1  2  0
 17  6  2  0
  6  7  1  0
 10  4  2  0
M  CHG  2   5   1  14  -1
M  END
> <chembl_id>
CHEMBL572

> <chembl_pref_name>
NITROFURANTOIN

$$$$

     RDKit          2D

  9  9  0  0  0  0  0  0  0  0999 V2000
   -1.0677    0.2698    0.0000 C   0  0  0  0  0  0  0  0  0  0  0  0
   -1.6512   -0.3135    0.0000 C   0  0  0  0  0  0  0  0  0  0  0  0
   -1.0677   -0.8967    0.0000 C   0  0  0  0  0  0  0  0  0  0  0  0
   -0.4845   -0.3135    0.0000 C   0  0  0  0  0  0  0  0  0  0  0  0
   -0.4859    0.8570    0.0000 N   0  0  0  0  0  0  0  0  0  0  0  0
   -1.4848    0.9852    0.0000 C   0  0  0  0  0  0  0  0  0  0  0  0
   -2.3098    0.9818    0.0000 O   0  0  0  0  0  0  0  0  0  0  0  0
   -1.0753    1.7014    0.0000 O   0  0  0  0  0  0  0  0  0  0  0  0
   -1.0677   -1.7217    0.0000 F   0  0  0  0  0  0  0  0  0  0  0  0
  1  5  1  0
  1  2  1  0
  1  6  1  1
  2  3  1  0
  6  7  2  0
  3  4  1  0
  6  8  1  0
  4  1  1  0
  3  9  1  1
M  END
> <chembl_id>
CHEMBL1908917

> <chembl_pref_name>
FLUCICLOVINE

$$$$

     RDKit          2D

 11 10  0  0  0  0  0  0  0  0999 V2000
    1.2917   -1.7167    0.0000 C   0  0  0  0  0  0  0  0  0  0  0  0
   -0.1333   -1.7167    0.0000 C   0  0  0  0  0  0  0  0  0  0  0  0
    2.0167   -0.5292    0.0000 C   0  0  0  0  0  0  0  0  0  0  0  0
    2.7500    0.7000    0.0000 N   0  0  0  0  0  0  0  0  0  0  0  0
    1.9542   -2.9625    0.0000 C   0  0  0  0  0  0  0  0  0  0  0  0
   -0.8833   -2.9667    0.0000 O   0  0  0  0  0  0  0  0  0  0  0  0
   -0.8333   -0.4792    0.0000 O   0  0  0  0  0  0  0  0  0  0  0  0
   -0.0875    0.7458    0.0000 C   0  0  0  0  0  0  0  0  0  0  0  0
   -0.7625    2.0250    0.0000 C   0  0  0  0  0  0  0  0  0  0  0  0
   -2.2125    2.0625    0.0000 C   0  0  0  0  0  0  0  0  0  0  0  0
   -2.9083    3.3333    0.0000 C   0  0  0  0  0  0  0  0  0  0  0  0
  2  1  1  0
  3  1  1  0
  4  3  3  0
  5  1  2  0
  6  2  2  0
  7  2  1  0
  8  7  1  0
  9  8  1  0
 10  9  1  0
 11 10  1  0
M  END
> <chembl_id>
CHEMBL2104251

> <chembl_pref_name>
ENBUCRILATE

$$$$

     RDKit          2D

 20 21  0  0  0  0  0  0  0  0999 V2000
    3.2167   -0.1542    0.0000 C   0  0  0  0  0  0  0  0  0  0  0  0
   -3.1208   -0.1667    0.0000 C   0  0  0  0  0  0  0  0  0  0  0  0
   -2.0625    0.4458    0.0000 C   0  0  0  0  0  0  0  0  0  0  0  0
   -3.1208   -1.3792    0.0000 C   0  0  0  0  0  0  0  0  0  0  0  0
   -1.0083   -0.1667    0.0000 N   0  0  0  0  0  0  0  0  0  0  0  0
    2.1625    0.4458    0.0000 C   0  0  0  0  0  0  0  0  0  0  0  0
    0.0417    0.4458    0.0000 C   0  0  0  0  0  0  0  0  0  0  0  0
    1.1000   -0.1667    0.0000 C   0  0  0  0  0  0  0  0  0  0  0  0
   -2.0375   -2.0250    0.0000 O   0  0  0  0  0  0  0  0  0  0  0  0
    4.2542    0.4833    0.0000 F   0  0  0  0  0  0  0  0  0  0  0  0
    2.8500   -1.3125    0.0000 F   0  0  0  0  0  0  0  0  0  0  0  0
    3.5375   -1.3250    0.0000 F   0  0  0  0  0  0  0  0  0  0  0  0
   -4.1958   -1.8667    0.0000 O   0  0  0  0  0  0  0  0  0  0  0  0
   -4.1833    0.4458    0.0000 C   0  0  0  0  0  0  0  0  0  0  0  0
   -2.0625    1.6458    0.0000 C   0  0  0  0  0  0  0  0  0  0  0  0
    2.1625    1.6458    0.0000 C   0  0  0  0  0  0  0  0  0  0  0  0
    1.1000    2.2500    0.0000 C   0  0  0  0  0  0  0  0  0  0  0  0
    0.0417    1.6458    0.0000 C   0  0  0  0  0  0  0  0  0  0  0  0
   -4.1833    1.6458    0.0000 C   0  0  0  0  0  0  0  0  0  0  0  0
   -3.1208    2.2500    0.0000 C   0  0  0  0  0  0  0  0  0  0  0  0
  2  3  1  0
  3  5  1  0
  4  2  1  0
  5  7  1  0
  6  1  1  0
  7  8  2  0
  8  6  1  0
  9  4  2  0
 10  1  1  0
 11  1  1  0
 12  1  1  0
 13  4  1  0
 14  2  2  0
 15  3  2  0
 16  6  2  0
 17 16  1  0
 18 17  2  0
 19 20  2  0
 20 15  1  0
  7 18  1  0
 14 19  1  0
M  END
> <chembl_id>
CHEMBL23588

> <chembl_pref_name>
FLUFENAMIC ACID

$$$$

     RDKit          2D

 19 19  0  0  0  0  0  0  0  0999 V2000
    1.3250   -2.3417    0.0000 Cl  0  0  0  0  0  0  0  0  0  0  0  0
    1.0542   -0.9625    0.0000 C   0  0  0  0  0  0  0  0  0  0  0  0
    1.6667   -1.3167    0.0000 N   0  0  0  0  0  0  0  0  0  0  0  0
    2.2792   -0.9625    0.0000 C   0  0  0  0  0  0  0  0  0  0  0  0
   -0.1750   -0.9625    0.0000 N   0  0  0  0  0  0  0  0  0  0  0  0
    0.4375   -1.3167    0.0000 C   0  0  0  0  0  0  0  0  0  0  0  0
    1.0542   -0.2542    0.0000 O   0  0  0  0  0  0  0  0  0  0  0  0
    2.2750   -0.2542    0.0000 C   0  0  0  0  0  0  0  0  0  0  0  0
    2.8917   -1.3167    0.0000 C   0  0  0  0  0  0  0  0  0  0  0  0
   -0.1750   -0.2542    0.0000 C   0  0  0  0  0  0  0  0  0  0  0  0
   -0.7833   -1.3167    0.0000 C   0  0  0  0  0  0  0  0  0  0  0  0
    3.5042   -0.2542    0.0000 C   0  0  0  0  0  0  0  0  0  0  0  0
    0.4375   -2.0250    0.0000 C   0  0  0  0  0  0  0  0  0  0  0  0
    3.5042   -0.9667    0.0000 C   0  0  0  0  0  0  0  0  0  0  0  0
    2.8875    0.0958    0.0000 C   0  0  0  0  0  0  0  0  0  0  0  0
    2.8875   -2.0292    0.0000 C   0  0  0  0  0  0  0  0  0  0  0  0
    1.6625    0.0958    0.0000 C   0  0  0  0  0  0  0  0  0  0  0  0
   -0.7833   -2.0250    0.0000 C   0  0  0  0  0  0  0  0  0  0  0  0
   -0.1750   -2.3792    0.0000 C   0  0  0  0  0  0  0  0  0  0  0  0
  3  2  1  0
  4  3  1  0
  5  6  1  0
  6  2  1  0
  7  2  2  0
  8  4  1  0
  9  4  2  0
 10  5  1  0
 11  5  1  0
 12 14  2  0
 13  6  1  0
 14  9  1  0
 15  8  2  0
 16  9  1  0
 17  8  1  0
 18 19  1  0
 19 13  1  0
 18 11  1  0
 12 15  1  0
M  END
> <chembl_id>
CHEMBL1200440

> <chembl_pref_name>
MEPIVACAINE HYDROCHLORIDE

$$$$

     RDKit          2D

 17 18  0  0  0  0  0  0  0  0999 V2000
    0.7612    0.9492    0.0000 C   0  0  0  0  0  0  0  0  0  0  0  0
   -1.4215    1.2848    0.0000 C   0  0  0  0  0  0  0  0  0  0  0  0
   -0.1598   -2.6667    0.0000 C   0  0  0  0  0  0  0  0  0  0  0  0
    2.1901    0.9492    0.0000 C   0  0  0  0  0  0  0  0  0  0  0  0
    2.9046    1.3617    0.0000 C   0  0  0  0  0  0  0  0  0  0  0  0
    0.0467    1.3617    0.0000 C   0  0  0  0  0  0  0  0  0  0  0  0
   -0.7540    0.1288    0.0000 C   0  0  0  0  0  0  0  0  0  0  0  0
   -0.2020   -0.4843    0.0000 C   0  0  0  0  0  0  0  0  0  0  0  0
   -1.8159   -0.8274    0.0000 C   0  0  0  0  0  0  0  0  0  0  0  0
   -1.5610   -0.0428    0.0000 C   0  0  0  0  0  0  0  0  0  0  0  0
   -0.6678    0.9492    0.0000 C   0  0  0  0  0  0  0  0  0  0  0  0
   -0.4569   -1.2690    0.0000 C   0  0  0  0  0  0  0  0  0  0  0  0
   -1.2639   -1.4405    0.0000 C   0  0  0  0  0  0  0  0  0  0  0  0
    1.4756    1.3617    0.0000 N   0  0  0  0  0  0  0  0  0  0  0  0
   -1.9735    0.6717    0.0000 N   0  0  0  0  0  0  0  0  0  0  0  0
    0.0951   -1.8820    0.0000 O   0  0  0  0  0  0  0  0  0  0  0  0
    2.1901    0.1242    0.0000 O   0  0  0  0  0  0  0  0  0  0  0  0
  1  6  1  0
  1 14  1  0
  2 11  2  0
  4 14  1  0
  4  5  1  0
  7  8  1  0
 11  7  1  0
 13  9  2  0
  9 10  1  0
 10  7  2  0
  6 11  1  0
 12 16  1  0
 12  8  2  0
 12 13  1  0
 10 15  1  0
  2 15  1  0
  3 16  1  0
  4 17  2  0
M  END
> <chembl_id>
CHEMBL45

> <chembl_pref_name>
MELATONIN

$$$$

     RDKit          2D

 12  9  0  0  0  0  0  0  0  0999 V2000
    7.3366   -6.6295    0.0000 Cl  0  0  0  0  0  0  0  0  0  0  0  0
    4.8533   -5.8084    0.0000 N   0  0  0  0  0  0  0  0  0  0  0  0
    7.0071   -5.3699    0.0000 N   0  0  0  0  0  0  0  0  0  0  0  0
    9.1950   -5.7353    0.0000 N   0  0  0  0  0  0  0  0  0  0  0  0
    2.6655   -5.4429    0.0000 N   0  0  0  0  0  0  0  0  0  0  0  0
    6.2908   -5.7889    0.0000 C   0  0  0  0  0  0  0  0  0  0  0  0
    5.5696   -5.3991    0.0000 C   0  0  0  0  0  0  0  0  0  0  0  0
    7.7380   -5.7646    0.0000 C   0  0  0  0  0  0  0  0  0  0  0  0
    4.1224   -5.4283    0.0000 C   0  0  0  0  0  0  0  0  0  0  0  0
    8.4640   -5.3406    0.0000 C   0  0  0  0  0  0  0  0  0  0  0  0
    3.4061   -5.8376    0.0000 C   0  0  0  0  0  0  0  0  0  0  0  0
    5.7304   -6.6855    0.0000 Cl  0  0  0  0  0  0  0  0  0  0  0  0
  3  6  1  0
  4 10  1  0
  5 11  1  0
  6  7  1  0
  7  2  1  0
  8  3  1  0
  9  2  1  0
 10  8  1  0
 11  9  1  0
M  END
> <chembl_id>
CHEMBL3989777

> <chembl_pref_name>
TRIENTINE HYDROCHLORIDE

$$$$

     RDKit          2D

 13 12  0  0  0  0  0  0  0  0999 V2000
    7.5792   -5.3417    0.0000 Cl  0  0  0  0  0  0  0  0  0  0  0  0
    6.0667   -5.6208    0.0000 C   0  0  0  0  0  0  0  0  0  0  0  0
    5.4542   -5.2667    0.0000 C   0  0  0  0  0  0  0  0  0  0  0  0
    6.6792   -5.2625    0.0000 N   0  0  0  0  0  0  0  0  0  0  0  0
    4.8417   -5.6250    0.0000 C   0  0  0  0  0  0  0  0  0  0  0  0
    3.6167   -6.3375    0.0000 C   0  0  0  0  0  0  0  0  0  0  0  0
    3.0042   -6.6917    0.0000 Cl  0  0  0  0  0  0  0  0  0  0  0  0
    4.2292   -6.6917    0.0000 C   0  0  0  0  0  0  0  0  0  0  0  0
    3.6167   -5.6250    0.0000 C   0  0  0  0  0  0  0  0  0  0  0  0
    4.8417   -6.3375    0.0000 C   0  0  0  0  0  0  0  0  0  0  0  0
    4.2292   -5.2708    0.0000 C   0  0  0  0  0  0  0  0  0  0  0  0
    6.4167   -6.2292    0.0000 C   0  0  0  0  0  0  0  0  0  0  0  0
    5.7042   -6.2292    0.0000 C   0  0  0  0  0  0  0  0  0  0  0  0
  3  2  1  0
  4  2  1  0
  5  3  1  0
  6  8  1  0
  7  6  1  0
  8 10  2  0
  9 11  1  0
 10  5  1  0
 11  5  2  0
 12  2  1  0
 13  2  1  0
  6  9  2  0
M  END
> <chembl_id>
CHEMBL1200595

> <chembl_pref_name>
CHLORPHENTERMINE HYDROCHLORIDE

$$$$

     RDKit          2D

 15 13  0  0  0  0  0  0  0  0999 V2000
    6.3125   -4.5083    0.0000 Na  0  0  0  0  0 15  0  0  0  0  0  0
    4.3042   -4.5292    0.0000 C   0  0  0  0  0  0  0  0  0  0  0  0
    4.9167   -4.1792    0.0000 P   0  0  0  0  0  0  0  0  0  0  0  0
    3.6875   -4.1792    0.0000 P   0  0  0  0  0  0  0  0  0  0  0  0
    5.5292   -4.5292    0.0000 O   0  0  0  0  0  0  0  0  0  0  0  0
    4.5542   -3.5542    0.0000 O   0  0  0  0  0  0  0  0  0  0  0  0
    4.0375   -3.5625    0.0000 O   0  0  0  0  0  0  0  0  0  0  0  0
    4.6542   -5.1417    0.0000 O   0  0  0  0  0  0  0  0  0  0  0  0
    5.2667   -3.5542    0.0000 O   0  0  0  0  0  0  0  0  0  0  0  0
    3.3292   -3.5625    0.0000 O   0  0  0  0  0  0  0  0  0  0  0  0
    3.0750   -4.5292    0.0000 O   0  0  0  0  0  0  0  0  0  0  0  0
    3.9417   -5.1417    0.0000 C   0  0  0  0  0  0  0  0  0  0  0  0
    4.2875   -6.9875    0.0000 N   0  0  0  0  0  0  0  0  0  0  0  0
    3.9375   -6.3708    0.0000 C   0  0  0  0  0  0  0  0  0  0  0  0
    4.2958   -5.7583    0.0000 C   0  0  0  0  0  0  0  0  0  0  0  0
  3  2  1  0
  4  2  1  0
  5  3  1  0
  6  3  2  0
  7  4  2  0
  8  2  1  0
  9  3  1  0
 10  4  1  0
 11  4  1  0
 12  2  1  0
 13 14  1  0
 14 15  1  0
 15 12  1  0
M  CHG  2   1   1   5  -1
M  END
> <chembl_id>
CHEMBL675

> <chembl_pref_name>
ALENDRONATE SODIUM

$$$$

     RDKit          2D

  9  8  0  0  0  0  0  0  0  0999 V2000
    2.4125   -0.5542    0.0000 C   0  0  0  0  0  0  0  0  0  0  0  0
    3.2167    0.6833    0.0000 O   0  0  0  0  0  0  0  0  0  0  0  0
   -1.8833   -0.5375    0.0000 C   0  0  0  0  0  0  0  0  0  0  0  0
   -3.3208   -0.5375    0.0000 C   0  0  0  0  0  0  0  0  0  0  0  0
    0.9750   -0.5542    0.0000 C   0  0  0  0  0  0  0  0  0  0  0  0
    3.0000   -1.8375    0.0000 O   0  0  0  0  0  0  0  0  0  0  0  0
   -1.8833    1.9333    0.0000 N   0  0  0  0  0  0  0  0  0  0  0  0
   -1.1500    0.6708    0.0000 C   0  0  0  0  0  0  0  0  0  0  0  0
    0.2542    0.6708    0.0000 C   0  0  0  0  0  0  0  0  0  0  0  0
  2  1  2  0
  3  8  1  0
  4  3  2  0
  5  1  1  0
  6  1  1  0
  7  8  1  0
  8  9  1  0
  9  5  1  0
M  END
> <chembl_id>
CHEMBL89598

> <chembl_pref_name>
VIGABATRIN

$$$$

     RDKit          2D

 17 17  0  0  0  0  0  0  0  0999 V2000
   -3.0208    0.6875    0.0000 C   0  0  0  0  0  0  0  0  0  0  0  0
   -3.0208   -0.5250    0.0000 C   0  0  0  0  0  0  0  0  0  0  0  0
   -1.9958    1.2958    0.0000 C   0  0  0  0  0  0  0  0  0  0  0  0
   -0.9083   -0.5250    0.0000 C   0  0  0  0  0  0  0  0  0  0  0  0
   -1.9958   -1.1375    0.0000 C   0  0  0  0  0  0  0  0  0  0  0  0
   -0.9083    0.6875    0.0000 C   0  0  0  0  0  0  0  0  0  0  0  0
    2.2917   -1.0667    0.0000 N   0  0  0  0  0  0  0  0  0  0  0  0
    0.1792   -1.1375    0.0000 C   0  0  0  0  0  0  0  0  0  0  0  0
    3.3167   -0.4292    0.0000 C   0  0  0  0  0  0  0  0  0  0  0  0
    1.2375   -0.4917    0.0000 C   0  0  0  0  0  0  0  0  0  0  0  0
   -4.1083    1.3250    0.0000 N   0  0  0  0  0  0  0  0  0  0  0  0
   -4.1083   -1.1667    0.0000 Cl  0  0  0  0  0  0  0  0  0  0  0  0
   -1.9958    2.5208    0.0000 Cl  0  0  0  0  0  0  0  0  0  0  0  0
    0.1625   -2.4000    0.0000 O   0  0  0  0  0  0  0  0  0  0  0  0
    3.9542   -1.4875    0.0000 C   0  0  0  0  0  0  0  0  0  0  0  0
    4.3417    0.2083    0.0000 C   0  0  0  0  0  0  0  0  0  0  0  0
    2.6417    0.5958    0.0000 C   0  0  0  0  0  0  0  0  0  0  0  0
  2  1  2  0
  3  1  1  0
  4  6  1  0
  5  2  1  0
  6  3  2  0
  7 10  1  0
  8  4  1  0
  9  7  1  0
 10  8  1  0
 11  1  1  0
 12  2  1  0
 13  3  1  0
 14  8  1  0
 15  9  1  0
 16  9  1  0
 17  9  1  0
  5  4  2  0
M  END
> <chembl_id>
CHEMBL49080

> <chembl_pref_name>
CLENBUTEROL

$$$$

     RDKit          2D

 16 17  0  0  0  0  0  0  0  0999 V2000
    3.3667   -2.3958    0.0000 S   0  0  0  0  0  0  0  0  0  0  0  0
    3.9792   -2.7500    0.0000 N   0  0  0  0  0  0  0  0  0  0  0  0
    4.5917   -2.3958    0.0000 C   0  0  0  0  0  0  0  0  0  0  0  0
    5.1625   -2.8167    0.0000 N   0  0  0  0  0  0  0  0  0  0  0  0
    2.7542   -2.7542    0.0000 C   0  0  0  0  0  0  0  0  0  0  0  0
    4.8125   -1.7250    0.0000 S   0  0  0  0  0  0  0  0  0  0  0  0
    3.7167   -1.7792    0.0000 O   0  0  0  0  0  0  0  0  0  0  0  0
    3.0042   -1.7792    0.0000 O   0  0  0  0  0  0  0  0  0  0  0  0
    5.7375   -2.3958    0.0000 C   0  0  0  0  0  0  0  0  0  0  0  0
    5.5167   -1.7250    0.0000 C   0  0  0  0  0  0  0  0  0  0  0  0
    2.7542   -3.4667    0.0000 C   0  0  0  0  0  0  0  0  0  0  0  0
    2.1417   -2.4000    0.0000 C   0  0  0  0  0  0  0  0  0  0  0  0
    1.5292   -3.4667    0.0000 C   0  0  0  0  0  0  0  0  0  0  0  0
    0.9167   -3.8208    0.0000 N   0  0  0  0  0  0  0  0  0  0  0  0
    1.5292   -2.7542    0.0000 C   0  0  0  0  0  0  0  0  0  0  0  0
    2.1417   -3.8208    0.0000 C   0  0  0  0  0  0  0  0  0  0  0  0
  2  1  1  0
  3  2  1  0
  4  3  2  0
  5  1  1  0
  6  3  1  0
  7  1  2  0
  8  1  2  0
  9  4  1  0
 10  6  1  0
 11  5  1  0
 12  5  2  0
 13 15  2  0
 14 13  1  0
 15 12  1  0
 16 11  2  0
 16 13  1  0
  9 10  2  0
M  END
> <chembl_id>
CHEMBL437

> <chembl_pref_name>
SULFATHIAZOLE

$$$$

     RDKit          2D

 16 15  0  0  0  0  0  0  0  0999 V2000
    3.9625   -6.5000    0.0000 Cl  0  0  0  0  0  0  0  0  0  0  0  0
    5.3875   -5.6250    0.0000 C   0  0  0  0  0  0  0  0  0  0  0  0
    4.7667   -5.9792    0.0000 C   0  0  0  0  0  0  0  0  0  0  0  0
    4.1542   -5.6250    0.0000 N   0  0  0  0  0  0  0  0  0  0  0  0
    5.3875   -4.9042    0.0000 O   0  0  0  0  0  0  0  0  0  0  0  0
    6.0042   -5.9792    0.0000 C   0  0  0  0  0  0  0  0  0  0  0  0
    4.7750   -6.6917    0.0000 C   0  0  0  0  0  0  0  0  0  0  0  0
    4.1500   -4.9042    0.0000 C   0  0  0  0  0  0  0  0  0  0  0  0
    3.5417   -5.9792    0.0000 C   0  0  0  0  0  0  0  0  0  0  0  0
    6.6167   -5.6292    0.0000 C   0  0  0  0  0  0  0  0  0  0  0  0
    6.0042   -6.6917    0.0000 C   0  0  0  0  0  0  0  0  0  0  0  0
    3.5375   -4.5500    0.0000 C   0  0  0  0  0  0  0  0  0  0  0  0
    2.9250   -5.6250    0.0000 C   0  0  0  0  0  0  0  0  0  0  0  0
    6.6167   -7.0417    0.0000 C   0  0  0  0  0  0  0  0  0  0  0  0
    7.2375   -5.9792    0.0000 C   0  0  0  0  0  0  0  0  0  0  0  0
    7.2375   -6.6917    0.0000 C   0  0  0  0  0  0  0  0  0  0  0  0
  3  2  1  0
  4  3  1  0
  5  2  2  0
  6  2  1  0
  7  3  1  0
  8  4  1  0
  9  4  1  0
 10  6  2  0
 11  6  1  0
 12  8  1  0
 13  9  1  0
 14 11  2  0
 15 10  1  0
 16 15  2  0
 16 14  1  0
M  END
> <chembl_id>
CHEMBL1693

> <chembl_pref_name>
DIETHYLPROPION HYDROCHLORIDE

$$$$

     RDKit          2D

  9  9  0  0  0  0  0  0  0  0999 V2000
   -1.2500   -0.0792    0.0000 O   0  0  0  0  0  0  0  0  0  0  0  0
    1.2417   -0.0667    0.0000 O   0  0  0  0  0  0  0  0  0  0  0  0
   -0.0083    2.0708    0.0000 O   0  0  0  0  0  0  0  0  0  0  0  0
   -1.2500    1.3375    0.0000 C   0  0  0  0  0  0  0  0  0  0  0  0
    1.2417    1.3458    0.0000 C   0  0  0  0  0  0  0  0  0  0  0  0
    0.0042   -0.8000    0.0000 C   0  0  0  0  0  0  0  0  0  0  0  0
    0.0167   -2.2292    0.0000 C   0  0  0  0  0  0  0  0  0  0  0  0
   -2.5000    2.0208    0.0000 C   0  0  0  0  0  0  0  0  0  0  0  0
    2.5000    2.0333    0.0000 C   0  0  0  0  0  0  0  0  0  0  0  0
  2  6  1  0
  3  4  1  0
  4  1  1  0
  5  2  1  0
  6  1  1  0
  7  6  1  0
  8  4  1  0
  9  5  1  0
  3  5  1  0
M  END
> <chembl_id>
CHEMBL1410743

> <chembl_pref_name>
PARALDEHYDE

$$$$

     RDKit          2D

 16 17  0  0  0  0  0  0  0  0999 V2000
    3.5292   -5.2500    0.0000 C   0  0  0  0  0  0  0  0  0  0  0  0
    2.9167   -4.8917    0.0000 N   0  0  0  0  0  0  0  0  0  0  0  0
    3.5292   -5.9542    0.0000 C   0  0  0  0  0  0  0  0  0  0  0  0
    2.3042   -5.2500    0.0000 C   0  0  0  0  0  0  0  0  0  0  0  0
    2.9167   -6.3125    0.0000 C   0  0  0  0  0  0  0  0  0  0  0  0
    4.1458   -4.8958    0.0000 O   0  0  0  0  0  0  0  0  0  0  0  0
    3.8792   -6.5667    0.0000 C   0  0  0  0  0  0  0  0  0  0  0  0
    1.6917   -4.8958    0.0000 O   0  0  0  0  0  0  0  0  0  0  0  0
    2.3042   -5.9542    0.0000 C   0  0  0  0  0  0  0  0  0  0  0  0
    4.2375   -5.9542    0.0000 C   0  0  0  0  0  0  0  0  0  0  0  0
    4.5750   -6.5708    0.0000 C   0  0  0  0  0  0  0  0  0  0  0  0
    3.5167   -7.1750    0.0000 C   0  0  0  0  0  0  0  0  0  0  0  0
    4.5917   -5.3417    0.0000 C   0  0  0  0  0  0  0  0  0  0  0  0
    4.9250   -7.1833    0.0000 C   0  0  0  0  0  0  0  0  0  0  0  0
    3.8625   -7.7875    0.0000 C   0  0  0  0  0  0  0  0  0  0  0  0
    4.5667   -7.7917    0.0000 C   0  0  0  0  0  0  0  0  0  0  0  0
  2  1  1  0
  3  1  1  0
  4  2  1  0
  5  3  1  0
  6  1  2  0
  7  3  1  0
  8  4  2  0
  9  4  1  0
 10  3  1  0
 11  7  1  0
 12  7  2  0
 13 10  1  0
 14 11  2  0
 15 12  1  0
 16 14  1  0
  5  9  1  0
 16 15  2  0
M  END
> <chembl_id>
CHEMBL1102

> <chembl_pref_name>
GLUTETHIMIDE

$$$$

     RDKit          2D

 14 14  0  0  0  0  0  0  0  0999 V2000
   -0.1458   -4.6417    0.0000 C   0  0  0  0  0  0  0  0  0  0  0  0
   -0.7708   -4.9792    0.0000 N   0  0  0  0  0  0  0  0  0  0  0  0
    0.4250   -5.0542    0.0000 O   0  0  0  0  0  0  0  0  0  0  0  0
    0.0792   -3.9667    0.0000 C   0  0  0  0  0  0  0  0  0  0  0  0
    2.2250   -6.7833    0.0000 C   0  0  0  0  0  0  0  0  0  0  0  0
    1.0042   -4.6417    0.0000 C   0  0  0  0  0  0  0  0  0  0  0  0
    1.6000   -5.7083    0.0000 N   0  0  0  0  0  0  0  0  0  0  0  0
    0.7917   -3.9750    0.0000 C   0  0  0  0  0  0  0  0  0  0  0  0
   -0.7833   -5.6917    0.0000 O   0  0  0  0  0  0  0  0  0  0  0  0
   -1.3833   -4.6167    0.0000 O   0  0  0  0  0  0  0  0  0  0  0  0
    1.6167   -5.0000    0.0000 C   0  0  0  0  0  0  0  0  0  0  0  0
    2.2208   -6.0708    0.0000 N   0  0  0  0  0  0  0  0  0  0  0  0
    1.6292   -7.1500    0.0000 O   0  0  0  0  0  0  0  0  0  0  0  0
    2.8542   -7.1250    0.0000 N   0  0  0  0  0  0  0  0  0  0  0  0
  2  1  1  0
  3  1  1  0
  4  1  2  0
  5 12  1  0
  6  3  1  0
  7 11  2  0
  8  4  1  0
  9  2  1  0
 10  2  2  0
 11  6  1  0
 12  7  1  0
 13  5  2  0
 14  5  1  0
  8  6  2  0
M  CHG  2   2   1   9  -1
M  END
> <chembl_id>
CHEMBL869

> <chembl_pref_name>
NITROFURAZONE

$$$$

     RDKit          2D

 13 14  0  0  0  0  0  0  0  0999 V2000
   -0.7583   -2.1625    0.0000 N   0  0  0  0  0  0  0  0  0  0  0  0
    0.0792   -1.6792    0.0000 C   0  0  0  0  0  0  0  0  0  0  0  0
   -1.5958   -1.6792    0.0000 C   0  0  0  0  0  0  0  0  0  0  0  0
   -2.4333   -2.1625    0.0000 C   0  0  0  0  0  0  0  0  0  0  0  0
    0.0792   -0.7167    0.0000 N   0  0  0  0  0  0  0  0  0  0  0  0
   -0.7583   -3.1167    0.0000 C   0  0  0  0  0  0  0  0  0  0  0  0
   -2.4333   -3.1167    0.0000 C   0  0  0  0  0  0  0  0  0  0  0  0
   -1.5958   -3.5917    0.0000 C   0  0  0  0  0  0  0  0  0  0  0  0
    0.9167   -2.1792    0.0000 N   0  0  0  0  0  0  0  0  0  0  0  0
   -3.2708   -1.6792    0.0000 C   0  0  0  0  0  0  0  0  0  0  0  0
   -3.2708   -3.5917    0.0000 C   0  0  0  0  0  0  0  0  0  0  0  0
   -4.1083   -2.1625    0.0000 C   0  0  0  0  0  0  0  0  0  0  0  0
   -4.1083   -3.1167    0.0000 C   0  0  0  0  0  0  0  0  0  0  0  0
  2  1  1  0
  3  1  1  0
  4  3  1  0
  5  2  2  0
  6  1  1  0
  7  8  1  0
  8  6  1  0
  9  2  1  0
 10  4  1  0
 11  7  1  0
 12 10  2  0
 13 11  2  0
  4  7  2  0
 12 13  1  0
M  END
> <chembl_id>
CHEMBL169901

> <chembl_pref_name>
DEBRISOQUIN

$$$$

     RDKit          2D

 11 11  0  0  0  0  0  0  0  0999 V2000
    4.7167   -7.0625    0.0000 C   0  0  0  0  0  0  0  0  0  0  0  0
    5.3292   -7.4167    0.0000 C   0  0  0  0  0  0  0  0  0  0  0  0
    4.1042   -7.4167    0.0000 C   0  0  0  0  0  0  0  0  0  0  0  0
    3.4875   -7.0542    0.0000 N   0  0  0  0  0  0  0  0  0  0  0  0
    4.7167   -6.3542    0.0000 O   0  0  0  0  0  0  0  0  0  0  0  0
    5.9417   -7.0667    0.0000 C   0  0  0  0  0  0  0  0  0  0  0  0
    5.3292   -8.1292    0.0000 C   0  0  0  0  0  0  0  0  0  0  0  0
    4.1042   -8.1292    0.0000 C   0  0  0  0  0  0  0  0  0  0  0  0
    5.9500   -8.4792    0.0000 C   0  0  0  0  0  0  0  0  0  0  0  0
    6.5625   -7.4250    0.0000 C   0  0  0  0  0  0  0  0  0  0  0  0
    6.5667   -8.1292    0.0000 C   0  0  0  0  0  0  0  0  0  0  0  0
  2  1  1  0
  3  1  1  0
  4  3  1  0
  5  1  1  0
  6  2  1  0
  7  2  2  0
  8  3  1  0
  9  7  1  0
 10  6  2  0
 11 10  1  0
 11  9  2  0
M  END
> <chembl_id>
CHEMBL61006

> <chembl_pref_name>
PHENYLPROPANOLAMINE

$$$$

     RDKit          2D

 18 17  0  0  0  0  0  0  0  0999 V2000
   -3.8208   -0.3792    0.0000 N   0  0  0  0  0  0  0  0  0  0  0  0
   -3.2250   -0.0542    0.0000 C   0  0  0  0  0  0  0  0  0  0  0  0
   -3.4458   -0.9375    0.0000 C   0  0  0  0  0  0  0  0  0  0  0  0
   -4.2833    0.0958    0.0000 C   0  0  0  0  0  0  0  0  0  0  0  0
   -4.3458   -0.8000    0.0000 C   0  0  0  0  0  0  0  0  0  0  0  0
   -2.6458   -0.4042    0.0000 C   0  0  0  0  0  0  0  0  0  0  0  0
    3.7625   -0.2125    0.0000 C   0  0  0  0  0  0  0  0  0  0  0  0
    3.1792   -0.5292    0.0000 C   0  0  0  0  0  0  0  0  0  0  0  0
    1.4292   -0.1542    0.0000 C   0  0  0  0  0  0  0  0  0  0  0  0
    2.0042   -0.5042    0.0000 C   0  0  0  0  0  0  0  0  0  0  0  0
    2.6000   -0.1792    0.0000 C   0  0  0  0  0  0  0  0  0  0  0  0
   -2.0583   -0.0792    0.0000 C   0  0  0  0  0  0  0  0  0  0  0  0
    0.2625   -0.1292    0.0000 C   0  0  0  0  0  0  0  0  0  0  0  0
   -0.8875   -0.1042    0.0000 C   0  0  0  0  0  0  0  0  0  0  0  0
   -1.4833   -0.4292    0.0000 C   0  0  0  0  0  0  0  0  0  0  0  0
   -0.3125   -0.4542    0.0000 C   0  0  0  0  0  0  0  0  0  0  0  0
    0.8375   -0.4792    0.0000 C   0  0  0  0  0  0  0  0  0  0  0  0
    4.3417   -0.5625    0.0000 C   0  0  0  0  0  0  0  0  0  0  0  0
  2  1  1  0
  3  1  1  0
  4  1  1  0
  5  1  1  0
  6  2  1  0
  7  8  1  0
  8 11  1  0
  9 17  1  0
 10  9  1  0
 11 10  1  0
 12  6  1  0
 13 16  1  0
 14 15  1  0
 15 12  1  0
 16 14  1  0
 17 13  1  0
 18  7  1  0
M  CHG  1   1   1
M  END
> <chembl_id>
CHEMBL1180003

> <chembl_pref_name>
CETRIMIDE

$$$$

     RDKit          2D

 17 17  0  0  0  0  0  0  0  0999 V2000
   -2.5500  -10.1458    0.0000 Cl  0  0  0  0  0  0  0  0  0  0  0  0
   -1.7250   -7.3000    0.0000 C   0  0  0  0  0  0  0  0  0  0  0  0
   -1.7250   -8.1292    0.0000 C   0  0  0  0  0  0  0  0  0  0  0  0
   -1.0088   -8.5417    0.0000 N   0  0  0  0  0  0  0  0  0  0  0  0
   -0.2926   -8.1292    0.0000 C   0  0  0  0  0  0  0  0  0  0  0  0
   -0.2926   -7.3000    0.0000 N   0  0  0  0  0  0  0  0  0  0  0  0
   -1.0088   -6.8833    0.0000 C   0  0  0  0  0  0  0  0  0  0  0  0
    0.4212   -8.5469    0.0000 O   0  0  0  0  0  0  0  0  0  0  0  0
   -2.4448   -6.8896    0.0000 Cl  0  0  0  0  0  0  0  0  0  0  0  0
   -1.0088   -6.0542    0.0000 O   0  0  0  0  0  0  0  0  0  0  0  0
   -2.4393   -8.5420    0.0000 C   0  0  0  0  0  0  0  0  0  0  0  0
   -3.1539   -8.1299    0.0000 N   0  0  0  0  0  0  0  0  0  0  0  0
   -3.2419   -7.3053    0.0000 C   0  0  0  0  0  0  0  0  0  0  0  0
   -4.0489   -7.1342    0.0000 C   0  0  0  0  0  0  0  0  0  0  0  0
   -4.4611   -7.8489    0.0000 C   0  0  0  0  0  0  0  0  0  0  0  0
   -3.9087   -8.4616    0.0000 C   0  0  0  0  0  0  0  0  0  0  0  0
   -4.0818   -9.2682    0.0000 N   0  0  0  0  0  0  0  0  0  0  0  0
  2  3  2  0
  7 10  2  0
  2  7  1  0
  3 11  1  0
  3  4  1  0
 11 12  1  0
 12 13  1  0
  4  5  1  0
  5  6  1  0
  6  7  1  0
 13 14  1  0
 14 15  1  0
 15 16  1  0
 16 12  1  0
  5  8  2  0
 16 17  2  0
  2  9  1  0
M  END
> <chembl_id>
CHEMBL65375

> <chembl_pref_name>
TIPIRACIL HYDROCHLORIDE

$$$$

     RDKit          2D

 20 22  0  0  0  0  0  0  0  0999 V2000
    5.7167   -7.3875    0.0000 N   0  0  0  0  0  0  0  0  0  0  0  0
    5.7375   -5.9667    0.0000 S   0  0  0  0  0  0  0  0  0  0  0  0
    6.3375   -7.0250    0.0000 C   0  0  0  0  0  0  0  0  0  0  0  0
    5.1042   -7.0292    0.0000 C   0  0  0  0  0  0  0  0  0  0  0  0
    6.3417   -6.3167    0.0000 C   0  0  0  0  0  0  0  0  0  0  0  0
    5.1167   -6.3167    0.0000 C   0  0  0  0  0  0  0  0  0  0  0  0
    5.7375   -8.0875    0.0000 C   0  0  0  0  0  0  0  0  0  0  0  0
    5.1042   -8.4417    0.0000 C   0  0  0  0  0  0  0  0  0  0  0  0
    3.8792   -8.4542    0.0000 N   0  0  0  0  0  0  0  0  0  0  0  0
    4.5042   -7.3792    0.0000 C   0  0  0  0  0  0  0  0  0  0  0  0
    6.9625   -7.3792    0.0000 C   0  0  0  0  0  0  0  0  0  0  0  0
    4.5042   -5.9667    0.0000 C   0  0  0  0  0  0  0  0  0  0  0  0
    6.9542   -5.9542    0.0000 C   0  0  0  0  0  0  0  0  0  0  0  0
    4.4917   -8.0917    0.0000 C   0  0  0  0  0  0  0  0  0  0  0  0
    3.2667   -8.0917    0.0000 C   0  0  0  0  0  0  0  0  0  0  0  0
    3.8792   -9.1667    0.0000 C   0  0  0  0  0  0  0  0  0  0  0  0
    7.5750   -7.0250    0.0000 C   0  0  0  0  0  0  0  0  0  0  0  0
    3.8917   -7.0250    0.0000 C   0  0  0  0  0  0  0  0  0  0  0  0
    3.8792   -6.3250    0.0000 C   0  0  0  0  0  0  0  0  0  0  0  0
    7.5667   -6.3125    0.0000 C   0  0  0  0  0  0  0  0  0  0  0  0
  2  6  1  0
  3  1  1  0
  4  1  1  0
  5  3  2  0
  6  4  1  0
  7  1  1  0
  8  7  1  0
  9 14  1  0
 10  4  2  0
 11  3  1  0
 12  6  2  0
 13  5  1  0
 14  8  1  0
 15  9  1  0
 16  9  1  0
 17 11  2  0
 18 10  1  0
 19 18  2  0
 20 17  1  0
  2  5  1  0
 19 12  1  0
 20 13  2  0
M  END
> <chembl_id>
CHEMBL564

> <chembl_pref_name>
PROMAZINE

$$$$

     RDKit          2D

 11 10  0  0  1  0  0  0  0  0999 V2000
    0.7542    0.5375    0.0000 C   0  0  0  0  0  0  0  0  0  0  0  0
    0.7542   -0.2125    0.0000 O   0  0  0  0  0  0  0  0  0  0  0  0
    0.1125    0.9000    0.0000 C   0  0  0  0  0  0  0  0  0  0  0  0
   -0.5250    0.5375    0.0000 C   0  0  0  0  0  0  0  0  0  0  0  0
    1.3917    0.9000    0.0000 O   0  0  0  0  0  0  0  0  0  0  0  0
   -0.5250   -0.6417    0.0000 C   0  0  0  0  0  0  0  0  0  0  0  0
   -1.8083    0.5375    0.0000 N   0  0  0  0  0  0  0  0  0  0  0  0
   -1.1750    0.9000    0.0000 C   0  0  0  0  0  0  0  0  0  0  0  0
    0.1167   -1.0167    0.0000 C   0  0  0  0  0  0  0  0  0  0  0  0
    0.7542   -0.6625    0.0000 C   0  0  0  0  0  0  0  0  0  0  0  0
    0.1167   -1.7417    0.0000 C   0  0  0  0  0  0  0  0  0  0  0  0
  2  1  2  0
  3  1  1  0
  4  3  1  0
  5  1  1  0
  4  6  1  6
  7  8  1  0
  8  4  1  0
  9  6  1  0
 10  9  1  0
 11  9  1  0
M  END
> <chembl_id>
CHEMBL1059

> <chembl_pref_name>
PREGABALIN

$$$$

     RDKit          2D

 17 19  0  0  0  0  0  0  0  0999 V2000
   -0.0208    0.6458    0.0000 C   0  0  0  0  0  0  0  0  0  0  0  0
   -1.2375   -0.0917    0.0000 C   0  0  0  0  0  0  0  0  0  0  0  0
    1.2542   -0.0917    0.0000 C   0  0  0  0  0  0  0  0  0  0  0  0
   -1.2375   -1.5167    0.0000 C   0  0  0  0  0  0  0  0  0  0  0  0
    1.2542   -1.5167    0.0000 C   0  0  0  0  0  0  0  0  0  0  0  0
   -0.0208   -2.2250    0.0000 C   0  0  0  0  0  0  0  0  0  0  0  0
   -0.0208    2.0625    0.0000 O   0  0  0  0  0  0  0  0  0  0  0  0
   -2.4958    0.6458    0.0000 C   0  0  0  0  0  0  0  0  0  0  0  0
    2.4875    0.6125    0.0000 C   0  0  0  0  0  0  0  0  0  0  0  0
   -2.4958   -2.2250    0.0000 C   0  0  0  0  0  0  0  0  0  0  0  0
    2.4875   -2.2250    0.0000 C   0  0  0  0  0  0  0  0  0  0  0  0
   -2.4958    2.0625    0.0000 O   0  0  0  0  0  0  0  0  0  0  0  0
    2.4875    2.0625    0.0000 O   0  0  0  0  0  0  0  0  0  0  0  0
   -3.7458   -1.5167    0.0000 C   0  0  0  0  0  0  0  0  0  0  0  0
    3.7375   -1.4875    0.0000 C   0  0  0  0  0  0  0  0  0  0  0  0
   -3.7458   -0.0917    0.0000 C   0  0  0  0  0  0  0  0  0  0  0  0
    3.7375   -0.1167    0.0000 C   0  0  0  0  0  0  0  0  0  0  0  0
  2  1  1  0
  3  1  1  0
  4  2  2  0
  5  3  1  0
  6  5  1  0
  7  1  2  0
  8  2  1  0
  9  3  2  0
 10  4  1  0
 11  5  2  0
 12  8  1  0
 13  9  1  0
 14 16  1  0
 15 17  2  0
 16  8  2  0
 17  9  1  0
  4  6  1  0
 11 15  1  0
 10 14  2  0
M  END
> <chembl_id>
CHEMBL46469

> <chembl_pref_name>
ANTHRALIN

$$$$

     RDKit          2D

 15 16  0  0  1  0  0  0  0  0999 V2000
    2.0756   -2.6558    0.0000 O   0  0  0  0  0  0  0  0  0  0  0  0
    2.0756   -3.8722    0.0000 O   0  0  0  0  0  0  0  0  0  0  0  0
    3.4146   -1.7520    0.0000 N   0  0  0  0  0  0  0  0  0  0  0  0
    4.0730   -0.6026    0.0000 N   0  0  0  0  0  0  0  0  0  0  0  0
    4.7313   -1.7520    0.0000 N   0  0  0  0  0  0  0  0  0  0  0  0
    1.6627   -3.2696    0.0000 C   0  0  0  0  0  0  0  0  0  0  0  0
    2.7674   -2.8901    0.0000 C   0  0  0  0  0  0  0  0  0  0  0  0
    1.2386   -3.9948    0.0000 C   0  0  0  0  0  0  0  0  0  0  0  0
    1.2498   -2.5553    0.0000 C   0  0  0  0  0  0  0  0  0  0  0  0
    2.7674   -3.6378    0.0000 C   0  0  0  0  0  0  0  0  0  0  0  0
    0.4129   -3.9948    0.0000 C   0  0  0  0  0  0  0  0  0  0  0  0
    0.4129   -2.5553    0.0000 C   0  0  0  0  0  0  0  0  0  0  0  0
    3.4146   -2.5107    0.0000 C   0  0  0  0  0  0  0  0  0  0  0  0
    0.0000   -3.2696    0.0000 C   0  0  0  0  0  0  0  0  0  0  0  0
    4.0730   -1.3725    0.0000 C   0  0  0  0  0  0  0  0  0  0  0  0
  1  6  1  0
  1  7  1  0
  2  6  1  0
  2 10  1  0
  3 13  1  0
  3 15  1  0
  4 15  2  0
  5 15  1  0
  6  8  1  0
  6  9  1  0
  7 10  1  0
  7 13  1  0
  8 11  1  0
  9 12  1  0
 11 14  1  0
 12 14  1  0
M  END
> <chembl_id>
CHEMBL1037

> <chembl_pref_name>
GUANADREL

$$$$

     RDKit          2D

 21 23  0  0  0  0  0  0  0  0999 V2000
    5.6042   -5.0667    0.0000 C   0  0  0  0  0  0  0  0  0  0  0  0
    4.8917   -5.0667    0.0000 C   0  0  0  0  0  0  0  0  0  0  0  0
    3.8292   -5.6792    0.0000 N   0  0  0  0  0  0  0  0  0  0  0  0
    6.3167   -5.0667    0.0000 C   0  0  0  0  0  0  0  0  0  0  0  0
    4.5375   -5.6792    0.0000 C   0  0  0  0  0  0  0  0  0  0  0  0
    5.6042   -5.7792    0.0000 C   0  0  0  0  0  0  0  0  0  0  0  0
    5.6042   -4.3625    0.0000 O   0  0  0  0  0  0  0  0  0  0  0  0
    3.4750   -6.2917    0.0000 C   0  0  0  0  0  0  0  0  0  0  0  0
    3.4792   -5.0667    0.0000 C   0  0  0  0  0  0  0  0  0  0  0  0
    6.6667   -5.6875    0.0000 C   0  0  0  0  0  0  0  0  0  0  0  0
    6.6667   -4.4625    0.0000 C   0  0  0  0  0  0  0  0  0  0  0  0
    6.1792   -6.2042    0.0000 C   0  0  0  0  0  0  0  0  0  0  0  0
    5.0375   -6.1917    0.0000 C   0  0  0  0  0  0  0  0  0  0  0  0
    2.7667   -5.0667    0.0000 C   0  0  0  0  0  0  0  0  0  0  0  0
    2.7625   -6.2917    0.0000 C   0  0  0  0  0  0  0  0  0  0  0  0
    7.3792   -4.4625    0.0000 C   0  0  0  0  0  0  0  0  0  0  0  0
    7.3792   -5.6875    0.0000 C   0  0  0  0  0  0  0  0  0  0  0  0
    5.2542   -6.8667    0.0000 C   0  0  0  0  0  0  0  0  0  0  0  0
    5.9625   -6.8667    0.0000 C   0  0  0  0  0  0  0  0  0  0  0  0
    7.7375   -5.0667    0.0000 C   0  0  0  0  0  0  0  0  0  0  0  0
    2.4125   -5.6792    0.0000 C   0  0  0  0  0  0  0  0  0  0  0  0
  2  1  1  0
  3  5  1  0
  4  1  1  0
  5  2  1  0
  6  1  1  0
  7  1  1  0
  8  3  1  0
  9  3  1  0
 10  4  1  0
 11  4  2  0
 12  6  1  0
 13  6  1  0
 14  9  1  0
 15  8  1  0
 16 11  1  0
 17 10  2  0
 18 13  1  0
 19 12  1  0
 20 17  1  0
 21 15  1  0
 19 18  1  0
 20 16  2  0
 21 14  1  0
M  END
> <chembl_id>
CHEMBL1201227

> <chembl_pref_name>
CYCRIMINE

$$$$

     RDKit          2D

 15 16  0  0  1  0  0  0  0  0999 V2000
    5.4125   -6.2417    0.0000 C   0  0  0  0  0  0  0  0  0  0  0  0
    5.9875   -6.6667    0.0000 N   0  0  0  0  0  0  0  0  0  0  0  0
    3.2625   -5.5667    0.0000 C   0  0  0  0  0  0  0  0  0  0  0  0
    6.3417   -5.5750    0.0000 N   0  0  0  0  0  0  0  0  0  0  0  0
    3.8375   -5.1542    0.0000 O   0  0  0  0  0  0  0  0  0  0  0  0
    4.1875   -6.2417    0.0000 C   0  0  0  0  0  0  0  0  0  0  0  0
    4.8000   -6.6000    0.0000 C   0  0  0  0  0  0  0  0  0  0  0  0
    6.5542   -6.2417    0.0000 C   0  0  0  0  0  0  0  0  0  0  0  0
    3.4792   -6.2417    0.0000 C   0  0  0  0  0  0  0  0  0  0  0  0
    5.6292   -5.5750    0.0000 C   0  0  0  0  0  0  0  0  0  0  0  0
    4.4042   -5.5667    0.0000 C   0  0  0  0  0  0  0  0  0  0  0  0
    2.5875   -5.3542    0.0000 O   0  0  0  0  0  0  0  0  0  0  0  0
    5.9875   -7.3750    0.0000 C   0  0  0  0  0  0  0  0  0  0  0  0
    2.8625   -6.5917    0.0000 C   0  0  0  0  0  0  0  0  0  0  0  0
    2.2500   -6.2292    0.0000 C   0  0  0  0  0  0  0  0  0  0  0  0
  2  1  1  0
  3  9  1  0
  4 10  1  0
  5 11  1  0
  6  7  1  6
  7  1  1  0
  8  2  1  0
  9  6  1  0
 10  1  2  0
 11  6  1  0
 12  3  2  0
 13  2  1  0
  9 14  1  6
 15 14  1  0
  8  4  2  0
  3  5  1  0
M  END
> <chembl_id>
CHEMBL550

> <chembl_pref_name>
PILOCARPINE

$$$$

     RDKit          2D

 16 16  0  0  0  0  0  0  0  0999 V2000
    6.3250   -1.1375    0.0000 C   0  0  0  0  0  0  0  0  0  0  0  0
    5.7000   -0.7792    0.0000 C   0  0  0  0  0  0  0  0  0  0  0  0
    6.3250   -1.8542    0.0000 C   0  0  0  0  0  0  0  0  0  0  0  0
    8.1625   -0.7625    0.0000 N   0  0  0  0  0  0  0  0  0  0  0  0
    5.7000   -2.2250    0.0000 C   0  0  0  0  0  0  0  0  0  0  0  0
    5.0875   -1.1375    0.0000 C   0  0  0  0  0  0  0  0  0  0  0  0
    5.0875   -1.8542    0.0000 C   0  0  0  0  0  0  0  0  0  0  0  0
    6.9417   -0.7792    0.0000 C   0  0  0  0  0  0  0  0  0  0  0  0
    8.7750   -1.1042    0.0000 C   0  0  0  0  0  0  0  0  0  0  0  0
    7.5542   -1.1250    0.0000 C   0  0  0  0  0  0  0  0  0  0  0  0
    5.7000   -2.9250    0.0000 O   0  0  0  0  0  0  0  0  0  0  0  0
    4.4750   -0.7875    0.0000 O   0  0  0  0  0  0  0  0  0  0  0  0
    6.9500   -0.0750    0.0000 O   0  0  0  0  0  0  0  0  0  0  0  0
    8.4167   -1.7167    0.0000 C   0  0  0  0  0  0  0  0  0  0  0  0
    9.3792   -0.7417    0.0000 C   0  0  0  0  0  0  0  0  0  0  0  0
    9.1250   -1.7167    0.0000 C   0  0  0  0  0  0  0  0  0  0  0  0
  2  1  1  0
  3  1  2  0
  4 10  1  0
  5  3  1  0
  6  2  2  0
  7  6  1  0
  8  1  1  0
  9  4  1  0
 10  8  1  0
 11  5  1  0
 12  6  1  0
 13  8  1  0
 14  9  1  0
 15  9  1  0
 16  9  1  0
  5  7  2  0
M  END
> <chembl_id>
CHEMBL1760

> <chembl_pref_name>
TERBUTALINE

$$$$

     RDKit          2D

 18 19  0  0  0  0  0  0  0  0999 V2000
   -3.2208    0.7958    0.0000 S   0  0  0  0  0  0  0  0  0  0  0  0
    2.9500    0.0375    0.0000 S   0  0  0  0  0  0  0  0  0  0  0  0
   -2.0833    0.0583    0.0000 N   0  0  0  0  0  0  0  0  0  0  0  0
    1.6542    0.0375    0.0000 C   0  0  0  0  0  0  0  0  0  0  0  0
   -2.2958    1.5750    0.0000 O   0  0  0  0  0  0  0  0  0  0  0  0
   -4.0833    1.5750    0.0000 O   0  0  0  0  0  0  0  0  0  0  0  0
   -0.8458    0.0375    0.0000 C   0  0  0  0  0  0  0  0  0  0  0  0
    2.9500   -1.2542    0.0000 O   0  0  0  0  0  0  0  0  0  0  0  0
    2.9500    1.2875    0.0000 O   0  0  0  0  0  0  0  0  0  0  0  0
    4.2042    0.0375    0.0000 N   0  0  0  0  0  0  0  0  0  0  0  0
   -4.3458    0.0208    0.0000 C   0  0  0  0  0  0  0  0  0  0  0  0
    1.0875    1.1000    0.0000 C   0  0  0  0  0  0  0  0  0  0  0  0
    1.0500   -1.0625    0.0000 C   0  0  0  0  0  0  0  0  0  0  0  0
   -0.2000   -1.0625    0.0000 C   0  0  0  0  0  0  0  0  0  0  0  0
   -0.2208    1.1000    0.0000 C   0  0  0  0  0  0  0  0  0  0  0  0
   -2.0833   -1.1167    0.0000 C   0  0  0  0  0  0  0  0  0  0  0  0
   -4.3458   -1.1542    0.0000 C   0  0  0  0  0  0  0  0  0  0  0  0
   -3.2208   -1.7667    0.0000 C   0  0  0  0  0  0  0  0  0  0  0  0
  2  4  1  0
  3  1  1  0
  4 12  1  0
  5  1  2  0
  6  1  2  0
  7  3  1  0
  8  2  2  0
  9  2  2  0
 10  2  1  0
 11  1  1  0
 12 15  2  0
 13 14  1  0
 14  7  2  0
 15  7  1  0
 16  3  1  0
 17 11  1  0
 18 17  1  0
 16 18  1  0
 13  4  2  0
M  END
> <chembl_id>
CHEMBL328560

> <chembl_pref_name>
SULTHIAME

$$$$

     RDKit          2D

 16  9  0  0  0  0  0  0  0  0999 V2000
   -3.0208    1.6000    0.0000 O   0  0  0  0  0  0  0  0  0  0  0  0
    0.1792   -1.2167    0.0000 C   0  0  0  0  0  0  0  0  0  0  0  0
    1.3125   -0.3250    0.0000 C   0  0  0  0  0  0  0  0  0  0  0  0
   -1.1333   -0.6875    0.0000 C   0  0  0  0  0  0  0  0  0  0  0  0
    2.6542   -0.8542    0.0000 C   0  0  0  0  0  0  0  0  0  0  0  0
   -2.2708   -1.5750    0.0000 O   0  0  0  0  0  0  0  0  0  0  0  0
    2.8542   -2.2792    0.0000 O   0  0  0  0  0  0  0  0  0  0  0  0
    3.7792    0.0208    0.0000 O   0  0  0  0  0  0  0  0  0  0  0  0
   -1.3458    0.7208    0.0000 O   0  0  0  0  0  0  0  0  0  0  0  0
    0.3875   -2.6375    0.0000 O   0  0  0  0  0  0  0  0  0  0  0  0
    1.1042    1.0833    0.0000 O   0  0  0  0  0  0  0  0  0  0  0  0
   -3.7083   -2.6375    0.0000 Na  0  0  0  0  0 15  0  0  0  0  0  0
    0.7542    2.5208    0.0000 K   0  0  0  0  0 15  0  0  0  0  0  0
   -2.4708    2.4583    0.0000 O   0  0  0  0  0  0  0  0  0  0  0  0
   -1.8000    3.0708    0.0000 O   0  0  0  0  0  0  0  0  0  0  0  0
   -3.1500    0.4458    0.0000 O   0  0  0  0  0  0  0  0  0  0  0  0
  3  2  1  0
  4  2  1  0
  5  3  1  0
  6  4  1  0
  7  5  1  0
  8  5  2  0
  9  4  2  0
  2 10  1  1
  3 11  1  1
M  CHG  4   6  -1   7  -1  12   1  13   1
M  END
> <chembl_id>
CHEMBL2107168

> <chembl_pref_name>
POTASSIUM SODIUM TARTRATE

$$$$

     RDKit          2D

 11 11  0  0  0  0  0  0  0  0999 V2000
   -0.0458   -0.0792    0.0000 C   0  0  0  0  0  0  0  0  0  0  0  0
    1.1792    0.6458    0.0000 C   0  0  0  0  0  0  0  0  0  0  0  0
   -1.2833    0.6250    0.0000 C   0  0  0  0  0  0  0  0  0  0  0  0
    1.1917    2.0708    0.0000 O   0  0  0  0  0  0  0  0  0  0  0  0
    2.4292   -0.0792    0.0000 O   0  0  0  0  0  0  0  0  0  0  0  0
   -1.2833    2.0708    0.0000 O   0  0  0  0  0  0  0  0  0  0  0  0
   -0.0333   -1.5167    0.0000 C   0  0  0  0  0  0  0  0  0  0  0  0
   -2.5375   -0.0917    0.0000 C   0  0  0  0  0  0  0  0  0  0  0  0
    2.4542   -1.4917    0.0000 C   0  0  0  0  0  0  0  0  0  0  0  0
   -1.2833   -2.2292    0.0000 C   0  0  0  0  0  0  0  0  0  0  0  0
   -2.5208   -1.5375    0.0000 C   0  0  0  0  0  0  0  0  0  0  0  0
  2  1  1  0
  3  1  2  0
  4  2  2  0
  5  2  1  0
  6  3  1  0
  7  1  1  0
  8  3  1  0
  9  5  1  0
 10  7  2  0
 11 10  1  0
  8 11  2  0
M  END
> <chembl_id>
CHEMBL108545

> <chembl_pref_name>
METHYL SALICYLATE

$$$$

     RDKit          2D

 18 17  0  0  0  0  0  0  0  0999 V2000
    4.4000   -6.1542    0.0000 Cl  0  0  0  0  0  0  0  0  0  0  0  0
    4.1958   -4.4333    0.0000 C   0  0  0  0  0  0  0  0  0  0  0  0
    4.8083   -4.0750    0.0000 C   0  0  0  0  0  0  0  0  0  0  0  0
    1.7458   -4.4375    0.0000 C   0  0  0  0  0  0  0  0  0  0  0  0
    3.5833   -4.0792    0.0000 C   0  0  0  0  0  0  0  0  0  0  0  0
    1.7458   -5.1500    0.0000 C   0  0  0  0  0  0  0  0  0  0  0  0
    2.3583   -4.0833    0.0000 C   0  0  0  0  0  0  0  0  0  0  0  0
    2.9708   -4.4375    0.0000 C   0  0  0  0  0  0  0  0  0  0  0  0
    4.8083   -3.3667    0.0000 O   0  0  0  0  0  0  0  0  0  0  0  0
    2.3583   -5.5042    0.0000 C   0  0  0  0  0  0  0  0  0  0  0  0
    4.5417   -5.0417    0.0000 N   0  0  0  0  0  0  0  0  0  0  0  0
    2.9708   -5.1500    0.0000 C   0  0  0  0  0  0  0  0  0  0  0  0
    5.4250   -4.4292    0.0000 O   0  0  0  0  0  0  0  0  0  0  0  0
    1.1333   -4.0833    0.0000 O   0  0  0  0  0  0  0  0  0  0  0  0
    1.1333   -5.5042    0.0000 O   0  0  0  0  0  0  0  0  0  0  0  0
    3.8375   -5.0417    0.0000 C   0  0  0  0  0  0  0  0  0  0  0  0
    6.0375   -4.0708    0.0000 C   0  0  0  0  0  0  0  0  0  0  0  0
    6.6500   -4.4250    0.0000 C   0  0  0  0  0  0  0  0  0  0  0  0
  3  2  1  0
  4  7  1  0
  5  2  1  0
  6  4  2  0
  7  8  2  0
  8  5  1  0
  9  3  2  0
 10 12  2  0
  2 11  1  1
 12  8  1  0
 13  3  1  0
 14  4  1  0
 15  6  1  0
 16  2  1  0
 17 13  1  0
 18 17  1  0
 10  6  1  0
M  END
> <chembl_id>
CHEMBL1200432

> <chembl_pref_name>
METHYLDOPATE HYDROCHLORIDE

$$$$

     RDKit          2D

 20 20  0  0  0  0  0  0  0  0999 V2000
   -1.4333    0.3208    0.0000 N   0  0  0  0  0  0  0  0  0  0  0  0
   -0.4958   -0.2667    0.0000 C   0  0  0  0  0  0  0  0  0  0  0  0
   -2.4083   -0.2292    0.0000 C   0  0  0  0  0  0  0  0  0  0  0  0
    0.4917    0.2958    0.0000 C   0  0  0  0  0  0  0  0  0  0  0  0
   -0.4958   -1.3750    0.0000 O   0  0  0  0  0  0  0  0  0  0  0  0
    1.4292   -0.2667    0.0000 N   0  0  0  0  0  0  0  0  0  0  0  0
   -3.3583    0.3125    0.0000 C   0  0  0  0  0  0  0  0  0  0  0  0
   -2.4208   -1.3542    0.0000 C   0  0  0  0  0  0  0  0  0  0  0  0
   -4.3458   -1.3292    0.0000 C   0  0  0  0  0  0  0  0  0  0  0  0
    0.4917    1.4000    0.0000 C   0  0  0  0  0  0  0  0  0  0  0  0
    1.4000   -1.3792    0.0000 C   0  0  0  0  0  0  0  0  0  0  0  0
    2.4042    0.2708    0.0000 C   0  0  0  0  0  0  0  0  0  0  0  0
   -3.3958   -1.8917    0.0000 C   0  0  0  0  0  0  0  0  0  0  0  0
   -4.3208   -0.2167    0.0000 C   0  0  0  0  0  0  0  0  0  0  0  0
   -1.4583   -1.9292    0.0000 C   0  0  0  0  0  0  0  0  0  0  0  0
   -3.3458    1.4500    0.0000 C   0  0  0  0  0  0  0  0  0  0  0  0
    3.3500   -0.3167    0.0000 C   0  0  0  0  0  0  0  0  0  0  0  0
    2.3542   -1.9542    0.0000 C   0  0  0  0  0  0  0  0  0  0  0  0
    1.4542    1.9625    0.0000 C   0  0  0  0  0  0  0  0  0  0  0  0
    4.3417    0.2250    0.0000 C   0  0  0  0  0  0  0  0  0  0  0  0
  2  1  1  0
  3  1  1  0
  4  2  1  0
  5  2  2  0
  6  4  1  0
  7  3  2  0
  8  3  1  0
  9 13  1  0
 10  4  1  0
 11  6  1  0
 12  6  1  0
 13  8  2  0
 14  7  1  0
 15  8  1  0
 16  7  1  0
 17 12  1  0
 18 11  1  0
 19 10  1  0
 20 17  1  0
 14  9  2  0
M  END
> <chembl_id>
CHEMBL492

> <chembl_pref_name>
ETIDOCAINE

$$$$

     RDKit          2D

  9  9  0  0  0  0  0  0  0  0999 V2000
    5.6875   -4.6542    0.0000 C   0  0  0  0  0  0  0  0  0  0  0  0
    5.0750   -5.0125    0.0000 C   0  0  0  0  0  0  0  0  0  0  0  0
    5.6875   -3.9417    0.0000 O   0  0  0  0  0  0  0  0  0  0  0  0
    4.4625   -6.0792    0.0000 N   0  0  0  0  0  0  0  0  0  0  0  0
    6.3042   -5.0125    0.0000 O   0  0  0  0  0  0  0  0  0  0  0  0
    5.0750   -5.7167    0.0000 C   0  0  0  0  0  0  0  0  0  0  0  0
    4.4625   -4.6542    0.0000 C   0  0  0  0  0  0  0  0  0  0  0  0
    3.8417   -5.7167    0.0000 C   0  0  0  0  0  0  0  0  0  0  0  0
    3.8417   -5.0125    0.0000 C   0  0  0  0  0  0  0  0  0  0  0  0
  2  1  1  0
  3  1  2  0
  4  6  2  0
  5  1  1  0
  6  2  1  0
  7  2  2  0
  8  9  2  0
  9  7  1  0
  8  4  1  0
M  END
> <chembl_id>
CHEMBL573

> <chembl_pref_name>
NIACIN

$$$$

     RDKit          2D

 11 13  0  0  0  0  0  0  0  0999 V2000
    3.9917   -0.7792    0.0000 C   0  0  0  0  0  0  0  0  0  0  0  0
    3.9875   -0.1792    0.0000 N   0  0  0  0  0  0  0  0  0  0  0  0
    3.5917   -1.8750    0.0000 C   0  0  0  0  0  0  0  0  0  0  0  0
    4.5375   -1.6000    0.0000 C   0  0  0  0  0  0  0  0  0  0  0  0
    3.4750   -1.5417    0.0000 C   0  0  0  0  0  0  0  0  0  0  0  0
    3.5875   -1.2542    0.0000 C   0  0  0  0  0  0  0  0  0  0  0  0
    3.4667   -0.9667    0.0000 C   0  0  0  0  0  0  0  0  0  0  0  0
    4.5375   -1.0042    0.0000 C   0  0  0  0  0  0  0  0  0  0  0  0
    4.1375   -2.0917    0.0000 C   0  0  0  0  0  0  0  0  0  0  0  0
    3.0042   -2.0375    0.0000 C   0  0  0  0  0  0  0  0  0  0  0  0
    3.9875   -1.7292    0.0000 C   0  0  0  0  0  0  0  0  0  0  0  0
  2  1  1  0
  3  6  1  0
  4  8  1  0
  5  7  1  0
  6  1  1  0
  7  1  1  0
  8  1  1  0
  9  4  1  0
 10  5  1  0
 11  4  1  0
  5 11  1  0
  3  9  1  0
 10  3  1  0
M  END
> <chembl_id>
CHEMBL660

> <chembl_pref_name>
AMANTADINE

$$$$

     RDKit          2D

 19 21  0  0  1  0  0  0  0  0999 V2000
    7.0667   -2.6875    0.0000 N   0  0  0  0  0  0  0  0  0  0  0  0
    7.0750   -3.5125    0.0000 C   0  0  0  0  0  0  0  0  0  0  0  0
    6.3917   -2.4667    0.0000 C   0  0  0  0  0  0  0  0  0  0  0  0
    6.3917   -1.7542    0.0000 C   0  0  0  0  0  0  0  0  0  0  0  0
    7.0667   -1.5375    0.0000 N   0  0  0  0  0  0  0  0  0  0  0  0
    6.8542   -4.1875    0.0000 C   0  0  0  0  0  0  0  0  0  0  0  0
    7.4875   -2.1042    0.0000 C   0  0  0  0  0  0  0  0  0  0  0  0
    6.5000   -3.0917    0.0000 O   0  0  0  0  0  0  0  0  0  0  0  0
    6.1500   -4.1875    0.0000 C   0  0  0  0  0  0  0  0  0  0  0  0
    5.9292   -3.5125    0.0000 C   0  0  0  0  0  0  0  0  0  0  0  0
    5.7792   -1.4042    0.0000 C   0  0  0  0  0  0  0  0  0  0  0  0
    5.7792   -2.8250    0.0000 N   0  0  0  0  0  0  0  0  0  0  0  0
    5.1667   -1.7542    0.0000 N   0  0  0  0  0  0  0  0  0  0  0  0
    5.1667   -2.4667    0.0000 C   0  0  0  0  0  0  0  0  0  0  0  0
    7.2667   -4.7542    0.0000 O   0  0  0  0  0  0  0  0  0  0  0  0
    5.7792   -0.6917    0.0000 N   0  0  0  0  0  0  0  0  0  0  0  0
    5.7292   -4.7542    0.0000 O   0  0  0  0  0  0  0  0  0  0  0  0
    5.3125   -3.1542    0.0000 C   0  0  0  0  0  0  0  0  0  0  0  0
    4.6917   -3.5042    0.0000 O   0  0  0  0  0  0  0  0  0  0  0  0
  2  1  1  1
  3  1  1  0
  4  3  1  0
  5  7  2  0
  6  2  1  0
  7  1  1  0
  8  2  1  0
  9  6  1  0
 10  8  1  0
 11  4  2  0
 12  3  2  0
 13 14  2  0
 14 12  1  0
  6 15  1  1
 16 11  1  0
  9 17  1  6
 10 18  1  1
 19 18  1  0
  4  5  1  0
  9 10  1  0
 13 11  1  0
M  END
> <chembl_id>
CHEMBL1090

> <chembl_pref_name>
VIDARABINE

$$$$

     RDKit          2D

 22 25  0  0  1  0  0  0  0  0999 V2000
    1.1375    0.1333    0.0000 C   0  0  0  0  0  0  0  0  0  0  0  0
   -0.9958    0.1458    0.0000 C   0  0  0  0  0  0  0  0  0  0  0  0
   -0.7458    1.3083    0.0000 O   0  0  0  0  0  0  0  0  0  0  0  0
    0.1167   -0.5042    0.0000 C   0  0  0  0  0  0  0  0  0  0  0  0
    0.5875    1.2833    0.0000 C   0  0  0  0  0  0  0  0  0  0  0  0
    0.1167   -1.7750    0.0000 C   0  0  0  0  0  0  0  0  0  0  0  0
    2.3917    0.1125    0.0000 C   0  0  0  0  0  0  0  0  0  0  0  0
    2.1292   -2.5292    0.0000 N   0  0  0  0  0  0  0  0  0  0  0  0
    2.3917   -0.4917    0.0000 C   0  0  0  0  0  0  0  0  0  0  0  0
    1.3000    2.3333    0.0000 C   0  0  0  0  0  0  0  0  0  0  0  0
    0.9125   -2.6167    0.0000 C   0  0  0  0  0  0  0  0  0  0  0  0
   -2.1000   -0.4917    0.0000 C   0  0  0  0  0  0  0  0  0  0  0  0
    3.0917    1.1833    0.0000 C   0  0  0  0  0  0  0  0  0  0  0  0
   -0.9958   -2.4375    0.0000 C   0  0  0  0  0  0  0  0  0  0  0  0
   -2.1000   -1.7750    0.0000 C   0  0  0  0  0  0  0  0  0  0  0  0
    2.7375   -1.6042    0.0000 C   0  0  0  0  0  0  0  0  0  0  0  0
    2.5375    2.3500    0.0000 C   0  0  0  0  0  0  0  0  0  0  0  0
   -3.1583    0.1000    0.0000 O   0  0  0  0  0  0  0  0  0  0  0  0
    3.2167    3.4583    0.0000 O   0  0  0  0  0  0  0  0  0  0  0  0
    2.7542   -3.5917    0.0000 C   0  0  0  0  0  0  0  0  0  0  0  0
   -3.1583    1.3208    0.0000 C   0  0  0  0  0  0  0  0  0  0  0  0
    0.3000    2.4833    0.0000 H   0  0  0  0  0  0  0  0  0  0  0  0
  2  4  1  0
  3  5  1  0
  4  1  1  0
  5  1  1  0
  6  4  2  0
  7  1  1  0
  8 16  1  0
  1  9  1  6
 10  5  1  0
 11  6  1  0
 12  2  2  0
 13  7  2  0
 14  6  1  0
 15 14  2  0
 16  9  1  0
 17 13  1  0
 18 12  1  0
 17 19  1  1
 20  8  1  0
 21 18  1  0
  5 22  1  6
  2  3  1  0
 10 17  1  0
 11  8  1  0
 12 15  1  0
M  END
> <chembl_id>
CHEMBL659

> <chembl_pref_name>
GALANTAMINE

$$$$

     RDKit          2D

 10 11  0  0  0  0  0  0  0  0999 V2000
    5.1417   -4.9125    0.0000 C   0  0  0  0  0  0  0  0  0  0  0  0
    5.1417   -5.6167    0.0000 C   0  0  0  0  0  0  0  0  0  0  0  0
    6.2375   -5.2542    0.0000 N   0  0  0  0  0  0  0  0  0  0  0  0
    4.5167   -4.5667    0.0000 C   0  0  0  0  0  0  0  0  0  0  0  0
    4.5417   -5.9875    0.0000 N   0  0  0  0  0  0  0  0  0  0  0  0
    5.8292   -5.8250    0.0000 N   0  0  0  0  0  0  0  0  0  0  0  0
    3.9042   -4.9292    0.0000 N   0  0  0  0  0  0  0  0  0  0  0  0
    3.9167   -5.6375    0.0000 C   0  0  0  0  0  0  0  0  0  0  0  0
    5.8125   -4.6792    0.0000 C   0  0  0  0  0  0  0  0  0  0  0  0
    4.5042   -3.8500    0.0000 O   0  0  0  0  0  0  0  0  0  0  0  0
  2  1  2  0
  3  9  2  0
  4  1  1  0
  5  2  1  0
  6  2  1  0
  7  4  2  0
  8  7  1  0
  9  1  1  0
 10  4  1  0
  6  3  1  0
  5  8  2  0
M  END
> <chembl_id>
CHEMBL1467

> <chembl_pref_name>
ALLOPURINOL

$$$$

     RDKit          2D

 18 20  0  0  0  0  0  0  0  0999 V2000
   -3.0583   -1.0375    0.0000 C   0  0  0  0  0  0  0  0  0  0  0  0
   -3.0583   -0.3000    0.0000 C   0  0  0  0  0  0  0  0  0  0  0  0
   -2.4083    0.0625    0.0000 C   0  0  0  0  0  0  0  0  0  0  0  0
   -1.7625   -1.0375    0.0000 N   0  0  0  0  0  0  0  0  0  0  0  0
   -2.4083   -1.4042    0.0000 C   0  0  0  0  0  0  0  0  0  0  0  0
   -1.7625   -0.3000    0.0000 C   0  0  0  0  0  0  0  0  0  0  0  0
   -3.7000   -1.4042    0.0000 C   0  0  0  0  0  0  0  0  0  0  0  0
   -2.4083    0.7958    0.0000 C   0  0  0  0  0  0  0  0  0  0  0  0
   -3.7000   -2.1292    0.0000 N   0  0  0  0  0  0  0  0  0  0  0  0
   -3.7000    0.0625    0.0000 C   0  0  0  0  0  0  0  0  0  0  0  0
   -1.1333   -1.3917    0.0000 C   0  0  0  0  0  0  0  0  0  0  0  0
   -4.3458   -0.3000    0.0000 C   0  0  0  0  0  0  0  0  0  0  0  0
   -4.3458   -1.0375    0.0000 C   0  0  0  0  0  0  0  0  0  0  0  0
   -1.8000    1.1458    0.0000 C   0  0  0  0  0  0  0  0  0  0  0  0
   -3.0625    1.1458    0.0000 C   0  0  0  0  0  0  0  0  0  0  0  0
   -3.0625    1.8833    0.0000 C   0  0  0  0  0  0  0  0  0  0  0  0
   -1.8000    1.9208    0.0000 C   0  0  0  0  0  0  0  0  0  0  0  0
   -2.4208    2.2708    0.0000 C   0  0  0  0  0  0  0  0  0  0  0  0
  2  1  1  0
  3  2  1  0
  4  5  1  0
  5  1  1  0
  6  4  1  0
  7  1  2  0
  8  3  1  0
  9  7  1  0
 10  2  2  0
 11  4  1  0
 12 13  2  0
 13  7  1  0
 14  8  2  0
 15  8  1  0
 16 15  2  0
 17 14  1  0
 18 16  1  0
 10 12  1  0
  3  6  1  0
 17 18  2  0
M  END
> <chembl_id>
CHEMBL273575

> <chembl_pref_name>
NOMIFENSINE

$$$$

     RDKit          2D

 18 19  0  0  0  0  0  0  0  0999 V2000
    0.1292   -0.6875    0.0000 C   0  0  0  0  0  0  0  0  0  0  0  0
    2.0792    1.1958    0.0000 C   0  0  0  0  0  0  0  0  0  0  0  0
   -2.1458   -1.2042    0.0000 C   0  0  0  0  0  0  0  0  0  0  0  0
    1.4167   -1.0625    0.0000 C   0  0  0  0  0  0  0  0  0  0  0  0
   -0.1708    0.6000    0.0000 C   0  0  0  0  0  0  0  0  0  0  0  0
   -2.5583    0.0625    0.0000 N   0  0  0  0  0  0  0  0  0  0  0  0
    0.7917    1.5875    0.0000 C   0  0  0  0  0  0  0  0  0  0  0  0
    2.3917   -0.1667    0.0000 C   0  0  0  0  0  0  0  0  0  0  0  0
   -0.8583   -1.6000    0.0000 C   0  0  0  0  0  0  0  0  0  0  0  0
   -3.2583   -2.0167    0.0000 N   0  0  0  0  0  0  0  0  0  0  0  0
    3.0375    2.1208    0.0000 C   0  0  0  0  0  0  0  0  0  0  0  0
   -3.9333    0.0625    0.0000 C   0  0  0  0  0  0  0  0  0  0  0  0
    1.7417   -2.3375    0.0000 C   0  0  0  0  0  0  0  0  0  0  0  0
   -1.4625    0.9083    0.0000 C   0  0  0  0  0  0  0  0  0  0  0  0
   -4.3458   -1.2417    0.0000 C   0  0  0  0  0  0  0  0  0  0  0  0
    3.1792    3.5833    0.0000 C   0  0  0  0  0  0  0  0  0  0  0  0
    2.0792    3.2208    0.0000 C   0  0  0  0  0  0  0  0  0  0  0  0
    4.3417    1.7708    0.0000 C   0  0  0  0  0  0  0  0  0  0  0  0
  2  7  2  0
  3  9  1  0
  4  1  1  0
  5  1  2  0
  6  3  2  0
  7  5  1  0
  8  4  2  0
  9  1  1  0
 10  3  1  0
 11  2  1  0
 12  6  1  0
 13  4  1  0
 14  5  1  0
 15 10  1  0
 16 11  1  0
 17 11  1  0
 18 11  1  0
  8  2  1  0
 15 12  1  0
M  END
> <chembl_id>
CHEMBL312448

> <chembl_pref_name>
XYLOMETAZOLINE

$$$$

     RDKit          2D

 11 11  0  0  0  0  0  0  0  0999 V2000
   -0.8625    1.2208    0.0000 C   0  0  0  0  0  0  0  0  0  0  0  0
   -0.8625   -0.2125    0.0000 C   0  0  0  0  0  0  0  0  0  0  0  0
    0.3792   -0.9292    0.0000 C   0  0  0  0  0  0  0  0  0  0  0  0
    0.3792    1.9125    0.0000 C   0  0  0  0  0  0  0  0  0  0  0  0
   -2.1083   -0.9292    0.0000 C   0  0  0  0  0  0  0  0  0  0  0  0
   -2.1083    1.9583    0.0000 O   0  0  0  0  0  0  0  0  0  0  0  0
    1.6000   -0.2375    0.0000 C   0  0  0  0  0  0  0  0  0  0  0  0
    1.6000    1.1958    0.0000 C   0  0  0  0  0  0  0  0  0  0  0  0
   -2.8250    0.3083    0.0000 C   0  0  0  0  0  0  0  0  0  0  0  0
   -1.3958   -2.1750    0.0000 C   0  0  0  0  0  0  0  0  0  0  0  0
    2.8167    1.9583    0.0000 C   0  0  0  0  0  0  0  0  0  0  0  0
  2  1  1  0
  3  2  2  0
  4  1  2  0
  5  2  1  0
  6  1  1  0
  7  8  2  0
  8  4  1  0
  9  5  1  0
 10  5  1  0
 11  8  1  0
  3  7  1  0
M  END
> <chembl_id>
CHEMBL29411

> <chembl_pref_name>
THYMOL

$$$$

     RDKit          2D

  2  1  0  0  0  0  0  0  0  0999 V2000
    0.7542    0.0500    0.0000 I   0  0  0  0  0  0  0  0  0  0  0  0
   -0.6833    0.0500    0.0000 I   0  0  0  0  0  0  0  0  0  0  0  0
  2  1  1  0
M  END
> <chembl_id>
CHEMBL1201225

> <chembl_pref_name>
IODINE

$$$$

     RDKit          2D

 16 16  0  0  0  0  0  0  0  0999 V2000
    2.5875   -4.8417    0.0000 C   0  0  0  0  0  0  0  0  0  0  0  0
    2.5875   -4.1292    0.0000 O   0  0  0  0  0  0  0  0  0  0  0  0
    3.2042   -5.1792    0.0000 O   0  0  0  0  0  0  0  0  0  0  0  0
    1.9750   -5.2000    0.0000 N   0  0  0  0  0  0  0  0  0  0  0  0
    5.6542   -5.1792    0.0000 O   0  0  0  0  0  0  0  0  0  0  0  0
    4.4417   -5.1875    0.0000 C   0  0  0  0  0  0  0  0  0  0  0  0
    6.2792   -4.8167    0.0000 C   0  0  0  0  0  0  0  0  0  0  0  0
    7.5167   -4.1167    0.0000 C   0  0  0  0  0  0  0  0  0  0  0  0
    3.8292   -4.8417    0.0000 C   0  0  0  0  0  0  0  0  0  0  0  0
    5.0542   -4.8292    0.0000 C   0  0  0  0  0  0  0  0  0  0  0  0
    8.1417   -3.7542    0.0000 Cl  0  0  0  0  0  0  0  0  0  0  0  0
    6.9125   -5.1750    0.0000 C   0  0  0  0  0  0  0  0  0  0  0  0
    6.2792   -4.1167    0.0000 C   0  0  0  0  0  0  0  0  0  0  0  0
    6.9042   -3.7542    0.0000 C   0  0  0  0  0  0  0  0  0  0  0  0
    7.5167   -4.8167    0.0000 C   0  0  0  0  0  0  0  0  0  0  0  0
    4.4417   -5.8917    0.0000 O   0  0  0  0  0  0  0  0  0  0  0  0
  2  1  2  0
  3  1  1  0
  4  1  1  0
  5 10  1  0
  6  9  1  0
  7  5  1  0
  8 14  2  0
  9  3  1  0
 10  6  1  0
 11  8  1  0
 12  7  1  0
 13  7  2  0
 14 13  1  0
 15 12  2  0
 16  6  1  0
  8 15  1  0
M  END
> <chembl_id>
CHEMBL607710

> <chembl_pref_name>
CHLORPHENESIN CARBAMATE

$$$$

     RDKit          2D

 18 19  0  0  0  0  0  0  0  0999 V2000
    5.0792   -5.3750    0.0000 C   0  0  0  0  0  0  0  0  0  0  0  0
    5.7042   -4.3042    0.0000 C   0  0  0  0  0  0  0  0  0  0  0  0
    4.4625   -5.0167    0.0000 C   0  0  0  0  0  0  0  0  0  0  0  0
    6.9167   -4.3125    0.0000 C   0  0  0  0  0  0  0  0  0  0  0  0
    5.7042   -5.0167    0.0000 C   0  0  0  0  0  0  0  0  0  0  0  0
    6.3042   -3.9542    0.0000 C   0  0  0  0  0  0  0  0  0  0  0  0
    4.4625   -4.3042    0.0000 C   0  0  0  0  0  0  0  0  0  0  0  0
    5.0792   -3.9417    0.0000 C   0  0  0  0  0  0  0  0  0  0  0  0
    6.9125   -5.0167    0.0000 O   0  0  0  0  0  0  0  0  0  0  0  0
    3.8500   -5.3750    0.0000 C   0  0  0  0  0  0  0  0  0  0  0  0
    5.0792   -6.0792    0.0000 F   0  0  0  0  0  0  0  0  0  0  0  0
    7.5042   -3.9542    0.0000 O   0  0  0  0  0  0  0  0  0  0  0  0
    6.3042   -3.2500    0.0000 C   0  0  0  0  0  0  0  0  0  0  0  0
    3.2375   -5.0167    0.0000 C   0  0  0  0  0  0  0  0  0  0  0  0
    3.8500   -6.0875    0.0000 C   0  0  0  0  0  0  0  0  0  0  0  0
    3.2375   -6.4417    0.0000 C   0  0  0  0  0  0  0  0  0  0  0  0
    2.6167   -5.3750    0.0000 C   0  0  0  0  0  0  0  0  0  0  0  0
    2.6167   -6.0875    0.0000 C   0  0  0  0  0  0  0  0  0  0  0  0
  2  5  1  0
  3  1  1  0
  4  6  1  0
  5  1  2  0
  6  2  1  0
  7  3  2  0
  8  2  2  0
  9  4  2  0
 10  3  1  0
 11  1  1  0
 12  4  1  0
 13  6  1  0
 14 10  1  0
 15 10  2  0
 16 15  1  0
 17 14  2  0
 18 16  2  0
  8  7  1  0
 18 17  1  0
M  END
> <chembl_id>
CHEMBL563

> <chembl_pref_name>
FLURBIPROFEN

$$$$

     RDKit          2D

 20 20  0  0  0  0  0  0  0  0999 V2000
    6.0792   -6.9042    0.0000 Cl  0  0  0  0  0  0  0  0  0  0  0  0
    5.0625   -5.7750    0.0000 N   0  0  0  0  0  0  0  0  0  0  0  0
    5.6792   -5.4167    0.0000 C   0  0  0  0  0  0  0  0  0  0  0  0
    6.3000   -5.7750    0.0000 N   0  0  0  0  0  0  0  0  0  0  0  0
    4.4625   -5.4167    0.0000 C   0  0  0  0  0  0  0  0  0  0  0  0
    5.0750   -6.4792    0.0000 C   0  0  0  0  0  0  0  0  0  0  0  0
    4.4542   -7.5500    0.0000 N   0  0  0  0  0  0  0  0  0  0  0  0
    4.4542   -6.8375    0.0000 C   0  0  0  0  0  0  0  0  0  0  0  0
    3.8417   -5.7750    0.0000 C   0  0  0  0  0  0  0  0  0  0  0  0
    5.6875   -4.7042    0.0000 C   0  0  0  0  0  0  0  0  0  0  0  0
    6.9125   -5.4167    0.0000 C   0  0  0  0  0  0  0  0  0  0  0  0
    3.8417   -7.9042    0.0000 C   0  0  0  0  0  0  0  0  0  0  0  0
    5.0750   -7.9042    0.0000 C   0  0  0  0  0  0  0  0  0  0  0  0
    3.8417   -6.4792    0.0000 C   0  0  0  0  0  0  0  0  0  0  0  0
    3.2292   -5.4167    0.0000 C   0  0  0  0  0  0  0  0  0  0  0  0
    6.3000   -4.3542    0.0000 C   0  0  0  0  0  0  0  0  0  0  0  0
    6.9167   -4.7042    0.0000 C   0  0  0  0  0  0  0  0  0  0  0  0
    2.6125   -5.7792    0.0000 C   0  0  0  0  0  0  0  0  0  0  0  0
    3.2250   -6.8417    0.0000 C   0  0  0  0  0  0  0  0  0  0  0  0
    2.6125   -6.4917    0.0000 C   0  0  0  0  0  0  0  0  0  0  0  0
  3  2  1  0
  4  3  2  0
  5  2  1  0
  6  2  1  0
  7  8  1  0
  8  6  1  0
  9  5  1  0
 10  3  1  0
 11  4  1  0
 12  7  1  0
 13  7  1  0
 14  9  1  0
 15  9  2  0
 16 10  2  0
 17 16  1  0
 18 15  1  0
 19 14  2  0
 20 19  1  0
 17 11  2  0
 20 18  2  0
M  END
> <chembl_id>
CHEMBL1200446

> <chembl_pref_name>
TRIPELENNAMINE HYDROCHLORIDE

$$$$

     RDKit          2D

 20 23  0  0  0  0  0  0  0  0999 V2000
    5.0792   -4.6167    0.0000 N   0  0  0  0  0  0  0  0  0  0  0  0
    4.4417   -4.9375    0.0000 C   0  0  0  0  0  0  0  0  0  0  0  0
    5.6792   -4.9417    0.0000 C   0  0  0  0  0  0  0  0  0  0  0  0
    5.3917   -6.1542    0.0000 N   0  0  0  0  0  0  0  0  0  0  0  0
    4.2792   -5.5917    0.0000 C   0  0  0  0  0  0  0  0  0  0  0  0
    4.7000   -6.1542    0.0000 C   0  0  0  0  0  0  0  0  0  0  0  0
    5.8375   -5.6042    0.0000 C   0  0  0  0  0  0  0  0  0  0  0  0
    5.0792   -3.9292    0.0000 C   0  0  0  0  0  0  0  0  0  0  0  0
    6.2500   -4.4667    0.0000 N   0  0  0  0  0  0  0  0  0  0  0  0
    4.7625   -3.2542    0.0000 C   0  0  0  0  0  0  0  0  0  0  0  0
    5.4500   -3.2417    0.0000 C   0  0  0  0  0  0  0  0  0  0  0  0
    3.9250   -4.4292    0.0000 N   0  0  0  0  0  0  0  0  0  0  0  0
    4.3792   -6.7792    0.0000 O   0  0  0  0  0  0  0  0  0  0  0  0
    6.5167   -5.8500    0.0000 C   0  0  0  0  0  0  0  0  0  0  0  0
    3.5875   -5.7792    0.0000 C   0  0  0  0  0  0  0  0  0  0  0  0
    6.9250   -4.7000    0.0000 C   0  0  0  0  0  0  0  0  0  0  0  0
    3.2417   -4.6167    0.0000 C   0  0  0  0  0  0  0  0  0  0  0  0
    7.0667   -5.3750    0.0000 C   0  0  0  0  0  0  0  0  0  0  0  0
    6.6792   -6.5417    0.0000 C   0  0  0  0  0  0  0  0  0  0  0  0
    3.0792   -5.2917    0.0000 C   0  0  0  0  0  0  0  0  0  0  0  0
  2  1  1  0
  3  1  1  0
  4  7  1  0
  5  2  2  0
  6  5  1  0
  7  3  2  0
  8  1  1  0
  9  3  1  0
 10  8  1  0
 11  8  1  0
 12  2  1  0
 13  6  2  0
 14  7  1  0
 15  5  1  0
 16  9  2  0
 17 12  2  0
 18 16  1  0
 19 14  1  0
 20 17  1  0
 11 10  1  0
  6  4  1  0
 18 14  2  0
 20 15  2  0
M  END
> <chembl_id>
CHEMBL57

> <chembl_pref_name>
NEVIRAPINE

$$$$

     RDKit          2D

 12 11  0  0  0  0  0  0  0  0999 V2000
    3.4542    0.2833    0.0000 Cl  0  0  0  0  0  0  0  0  0  0  0  0
    2.2542    0.5083    0.0000 C   0  0  0  0  0  0  0  0  0  0  0  0
    1.6417    0.8583    0.0000 C   0  0  0  0  0  0  0  0  0  0  0  0
    2.8667    0.8625    0.0000 N   0  0  0  0  0  0  0  0  0  0  0  0
    1.0292    0.5000    0.0000 C   0  0  0  0  0  0  0  0  0  0  0  0
    2.6125   -0.1042    0.0000 C   0  0  0  0  0  0  0  0  0  0  0  0
    1.9042   -0.1042    0.0000 C   0  0  0  0  0  0  0  0  0  0  0  0
    0.4167    0.8583    0.0000 C   0  0  0  0  0  0  0  0  0  0  0  0
    1.0292   -0.2125    0.0000 C   0  0  0  0  0  0  0  0  0  0  0  0
   -0.1958    0.5000    0.0000 C   0  0  0  0  0  0  0  0  0  0  0  0
    0.4167   -0.5667    0.0000 C   0  0  0  0  0  0  0  0  0  0  0  0
   -0.1958   -0.2125    0.0000 C   0  0  0  0  0  0  0  0  0  0  0  0
  3  2  1  0
  4  2  1  0
  5  3  1  0
  6  2  1  0
  7  2  1  0
  8  5  2  0
  9  5  1  0
 10  8  1  0
 11  9  2  0
 12 10  2  0
 11 12  1  0
M  END
> <chembl_id>
CHEMBL1200912

> <chembl_pref_name>
PHENTERMINE HYDROCHLORIDE

$$$$

     RDKit          2D

 16 17  0  0  0  0  0  0  0  0999 V2000
    1.2990   -0.7500    0.0000 N   0  0  0  0  0  0  0  0  0  0  0  0
    1.2990    0.7500    0.0000 C   0  0  0  0  0  0  0  0  0  0  0  0
    0.0000    1.5000    0.0000 N   0  0  0  0  0  0  0  0  0  0  0  0
    0.0000   -1.5000    0.0000 C   0  0  0  0  0  0  0  0  0  0  0  0
   -1.2990   -0.7500    0.0000 C   0  0  0  0  0  0  0  0  0  0  0  0
   -1.2990    0.7500    0.0000 C   0  0  0  0  0  0  0  0  0  0  0  0
    2.5987   -1.5004    0.0000 C   0  0  0  0  0  0  0  0  0  0  0  0
    3.9511   -0.8815    0.0000 O   0  0  0  0  0  0  0  0  0  0  0  0
    2.7343   -2.9815    0.0000 C   0  0  0  0  0  0  0  0  0  0  0  0
    2.3383    1.3500    0.0000 O   0  0  0  0  0  0  0  0  0  0  0  0
    4.2010   -3.2956    0.0000 C   0  0  0  0  0  0  0  0  0  0  0  0
   -2.3383    1.3500    0.0000 O   0  0  0  0  0  0  0  0  0  0  0  0
    4.9531   -1.9978    0.0000 C   0  0  0  0  0  0  0  0  0  0  0  0
   -2.3383   -1.3500    0.0000 C   0  0  0  0  0  0  0  0  0  0  0  0
    6.9313   -0.7443    0.0000 O   0  0  0  0  0  0  0  0  0  0  0  0
    6.4430   -1.8405    0.0000 C   0  0  0  0  0  0  0  0  0  0  0  0
  2  1  1  0
  3  2  1  0
  4  1  1  0
  5  4  2  0
  6  5  1  0
  7  1  1  6
  8  7  1  0
  9  7  1  0
 10  2  2  0
 11  9  2  0
 12  6  2  0
 13  8  1  0
 14  5  1  0
 15 16  1  0
 13 16  1  6
 13 11  1  0
  3  6  1  0
M  END
> <chembl_id>
CHEMBL991

> <chembl_pref_name>
STAVUDINE

$$$$

     RDKit          2D

 18 19  0  0  0  0  0  0  0  0999 V2000
   -0.0083    1.8583    0.0000 C   0  0  0  0  0  0  0  0  0  0  0  0
   -3.0125   -2.2125    0.0000 C   0  0  0  0  0  0  0  0  0  0  0  0
    0.9917    1.2750    0.0000 C   0  0  0  0  0  0  0  0  0  0  0  0
   -1.0083    1.2750    0.0000 C   0  0  0  0  0  0  0  0  0  0  0  0
   -0.0083    3.0208    0.0000 C   0  0  0  0  0  0  0  0  0  0  0  0
   -3.0125   -3.3792    0.0000 O   0  0  0  0  0  0  0  0  0  0  0  0
   -2.0125   -1.6292    0.0000 N   0  0  0  0  0  0  0  0  0  0  0  0
    0.9917    3.5958    0.0000 C   0  0  0  0  0  0  0  0  0  0  0  0
    2.0000    1.8583    0.0000 C   0  0  0  0  0  0  0  0  0  0  0  0
    2.0000    3.0208    0.0000 C   0  0  0  0  0  0  0  0  0  0  0  0
   -2.0125   -0.4667    0.0000 C   0  0  0  0  0  0  0  0  0  0  0  0
    3.0167    1.2750    0.0000 O   0  0  0  0  0  0  0  0  0  0  0  0
   -2.0208    3.0208    0.0000 C   0  0  0  0  0  0  0  0  0  0  0  0
   -1.0083    0.1208    0.0000 C   0  0  0  0  0  0  0  0  0  0  0  0
   -4.0208   -1.6292    0.0000 C   0  0  0  0  0  0  0  0  0  0  0  0
   -2.0208    1.8583    0.0000 C   0  0  0  0  0  0  0  0  0  0  0  0
   -1.0083    3.5958    0.0000 C   0  0  0  0  0  0  0  0  0  0  0  0
    4.0167    1.8625    0.0000 C   0  0  0  0  0  0  0  0  0  0  0  0
  2  7  1  0
  3  1  2  0
  4  1  1  0
  5  1  1  0
  6  2  2  0
  7 11  1  0
  8  5  2  0
  9  3  1  0
 10  8  1  0
 11 14  1  0
 12  9  1  0
 13 17  2  0
 14  4  1  0
 15  2  1  0
 16  4  2  0
 17  5  1  0
 18 12  1  0
 16 13  1  0
  9 10  2  0
M  END
> <chembl_id>
CHEMBL10878

> <chembl_pref_name>
AGOMELATINE

$$$$

     RDKit          2D

 11 12  0  0  0  0  0  0  0  0999 V2000
   -0.3833   -2.0917    0.0000 N   0  0  0  0  0  0  0  0  0  0  0  0
   -1.6375    0.0833    0.0000 N   0  0  0  0  0  0  0  0  0  0  0  0
    0.8250   -1.3667    0.0000 C   0  0  0  0  0  0  0  0  0  0  0  0
    0.8250    0.0833    0.0000 C   0  0  0  0  0  0  0  0  0  0  0  0
   -0.3833    0.7708    0.0000 C   0  0  0  0  0  0  0  0  0  0  0  0
   -1.6375   -1.3667    0.0000 C   0  0  0  0  0  0  0  0  0  0  0  0
    3.0042   -0.6375    0.0000 N   0  0  0  0  0  0  0  0  0  0  0  0
    2.1917   -1.8125    0.0000 N   0  0  0  0  0  0  0  0  0  0  0  0
    2.1917    0.4875    0.0000 C   0  0  0  0  0  0  0  0  0  0  0  0
   -0.3833    2.2250    0.0000 O   0  0  0  0  0  0  0  0  0  0  0  0
   -2.8958   -2.0917    0.0000 O   0  0  0  0  0  0  0  0  0  0  0  0
  2  6  1  0
  3  1  1  0
  4  3  2  0
  5  2  2  0
  6  1  2  0
  7  8  1  0
  8  3  1  0
  9  4  1  0
 10  5  1  0
 11  6  1  0
  4  5  1  0
  9  7  2  0
M  END
> <chembl_id>
CHEMBL859

> <chembl_pref_name>
OXYPURINOL

$$$$

     RDKit          2D

 14 15  0  0  0  0  0  0  0  0999 V2000
    5.7417   -5.1875    0.0000 S   0  0  0  0  0  0  0  0  0  0  0  0
    6.3542   -4.8375    0.0000 N   0  0  0  0  0  0  0  0  0  0  0  0
    5.1292   -4.8375    0.0000 C   0  0  0  0  0  0  0  0  0  0  0  0
    5.7417   -3.8000    0.0000 N   0  0  0  0  0  0  0  0  0  0  0  0
    6.3542   -4.1417    0.0000 C   0  0  0  0  0  0  0  0  0  0  0  0
    5.1292   -4.1417    0.0000 C   0  0  0  0  0  0  0  0  0  0  0  0
    5.3792   -5.8542    0.0000 O   0  0  0  0  0  0  0  0  0  0  0  0
    6.1292   -5.8542    0.0000 O   0  0  0  0  0  0  0  0  0  0  0  0
    4.5167   -5.1875    0.0000 C   0  0  0  0  0  0  0  0  0  0  0  0
    4.5167   -3.8000    0.0000 C   0  0  0  0  0  0  0  0  0  0  0  0
    3.9042   -4.8375    0.0000 C   0  0  0  0  0  0  0  0  0  0  0  0
    3.9042   -4.1417    0.0000 C   0  0  0  0  0  0  0  0  0  0  0  0
    3.2917   -5.1875    0.0000 Cl  0  0  0  0  0  0  0  0  0  0  0  0
    6.9667   -3.8000    0.0000 C   0  0  0  0  0  0  0  0  0  0  0  0
  2  1  1  0
  3  1  1  0
  4  6  1  0
  5  2  1  0
  6  3  1  0
  7  1  2  0
  8  1  2  0
  9  3  2  0
 10  6  2  0
 11  9  1  0
 12 11  2  0
 13 11  1  0
 14  5  1  0
  4  5  2  0
 12 10  1  0
M  END
> <chembl_id>
CHEMBL181

> <chembl_pref_name>
DIAZOXIDE

$$$$

     RDKit          2D

  6  5  0  0  0  0  0  0  0  0999 V2000
    5.0750   -4.6500    0.0000 C   0  0  0  0  0  0  0  0  0  0  0  0
    5.0750   -5.3542    0.0000 O   0  0  0  0  0  0  0  0  0  0  0  0
    3.8417   -4.6500    0.0000 O   0  0  0  0  0  0  0  0  0  0  0  0
    6.3042   -4.6500    0.0000 O   0  0  0  0  0  0  0  0  0  0  0  0
    5.6875   -4.2917    0.0000 C   0  0  0  0  0  0  0  0  0  0  0  0
    4.4625   -4.2917    0.0000 C   0  0  0  0  0  0  0  0  0  0  0  0
  2  1  1  0
  3  6  1  0
  4  5  1  0
  5  1  1  0
  6  1  1  0
M  END
> <chembl_id>
CHEMBL692

> <chembl_pref_name>
GLYCERIN

$$$$

     RDKit          2D

 14 14  0  0  1  0  0  0  0  0999 V2000
    4.9500   -5.4167    0.0000 N   0  0  0  0  0  0  0  0  0  0  0  0
    4.3292   -6.4917    0.0000 C   0  0  0  0  0  0  0  0  0  0  0  0
    4.3292   -5.7917    0.0000 C   0  0  0  0  0  0  0  0  0  0  0  0
    4.9500   -6.8500    0.0000 C   0  0  0  0  0  0  0  0  0  0  0  0
    5.5750   -6.4917    0.0000 C   0  0  0  0  0  0  0  0  0  0  0  0
    5.5750   -5.7667    0.0000 C   0  0  0  0  0  0  0  0  0  0  0  0
    3.7167   -6.8417    0.0000 O   0  0  0  0  0  0  0  0  0  0  0  0
    4.9500   -7.5500    0.0000 O   0  0  0  0  0  0  0  0  0  0  0  0
    6.1792   -6.8500    0.0000 O   0  0  0  0  0  0  0  0  0  0  0  0
    4.9500   -4.7042    0.0000 C   0  0  0  0  0  0  0  0  0  0  0  0
    3.7292   -5.4375    0.0000 C   0  0  0  0  0  0  0  0  0  0  0  0
    3.1167   -5.7875    0.0000 O   0  0  0  0  0  0  0  0  0  0  0  0
    6.1667   -4.7042    0.0000 O   0  0  0  0  0  0  0  0  0  0  0  0
    5.5542   -4.3500    0.0000 C   0  0  0  0  0  0  0  0  0  0  0  0
  2  3  1  0
  3  1  1  0
  4  5  1  0
  5  6  1  0
  6  1  1  0
  2  7  1  6
  4  8  1  1
  5  9  1  6
 10  1  1  0
  3 11  1  1
 12 11  1  0
 13 14  1  0
 14 10  1  0
  4  2  1  0
M  END
> <chembl_id>
CHEMBL1561

> <chembl_pref_name>
MIGLITOL

$$$$

     RDKit          2D

 17 16  0  0  0  0  0  0  0  0999 V2000
    7.6167   -5.9375    0.0000 Cl  0  0  0  0  0  0  0  0  0  0  0  0
    6.3167   -4.3583    0.0000 C   0  0  0  0  0  0  0  0  0  0  0  0
    6.9208   -4.7125    0.0000 N   0  0  0  0  0  0  0  0  0  0  0  0
    5.6958   -4.7333    0.0000 C   0  0  0  0  0  0  0  0  0  0  0  0
    6.3167   -3.6500    0.0000 O   0  0  0  0  0  0  0  0  0  0  0  0
    5.6958   -5.4333    0.0000 C   0  0  0  0  0  0  0  0  0  0  0  0
    5.0917   -4.3792    0.0000 C   0  0  0  0  0  0  0  0  0  0  0  0
    3.2375   -5.4667    0.0000 N   0  0  0  0  0  0  0  0  0  0  0  0
    2.6292   -5.8292    0.0000 N   0  0  0  0  0  0  0  0  0  0  0  0
    5.0917   -5.7917    0.0000 C   0  0  0  0  0  0  0  0  0  0  0  0
    4.4750   -4.7375    0.0000 C   0  0  0  0  0  0  0  0  0  0  0  0
    4.4750   -5.4375    0.0000 C   0  0  0  0  0  0  0  0  0  0  0  0
    7.5375   -4.3417    0.0000 C   0  0  0  0  0  0  0  0  0  0  0  0
    3.8500   -5.8125    0.0000 C   0  0  0  0  0  0  0  0  0  0  0  0
    2.0042   -5.4792    0.0000 C   0  0  0  0  0  0  0  0  0  0  0  0
    8.1458   -4.6958    0.0000 C   0  0  0  0  0  0  0  0  0  0  0  0
    7.5375   -3.6500    0.0000 C   0  0  0  0  0  0  0  0  0  0  0  0
  3  2  1  0
  4  2  1  0
  5  2  2  0
  6  4  2  0
  7  4  1  0
  8 14  1  0
  9  8  1  0
 10  6  1  0
 11  7  2  0
 12 11  1  0
 13  3  1  0
 14 12  1  0
 15  9  1  0
 16 13  1  0
 17 13  1  0
 12 10  2  0
M  END
> <chembl_id>
CHEMBL1200410

> <chembl_pref_name>
PROCARBAZINE HYDROCHLORIDE

$$$$

     RDKit          2D

 14 15  0  0  0  0  0  0  0  0999 V2000
    6.2375   -6.3500    0.0000 N   0  0  0  0  0  0  0  0  0  0  0  0
    5.6667   -5.9167    0.0000 C   0  0  0  0  0  0  0  0  0  0  0  0
    6.0000   -7.0125    0.0000 C   0  0  0  0  0  0  0  0  0  0  0  0
    5.0667   -6.3500    0.0000 C   0  0  0  0  0  0  0  0  0  0  0  0
    5.3000   -7.0125    0.0000 C   0  0  0  0  0  0  0  0  0  0  0  0
    5.6667   -5.2125    0.0000 O   0  0  0  0  0  0  0  0  0  0  0  0
    6.4042   -7.5875    0.0000 O   0  0  0  0  0  0  0  0  0  0  0  0
    4.4542   -5.9750    0.0000 C   0  0  0  0  0  0  0  0  0  0  0  0
    6.9167   -6.1542    0.0000 C   0  0  0  0  0  0  0  0  0  0  0  0
    3.8542   -6.3292    0.0000 C   0  0  0  0  0  0  0  0  0  0  0  0
    4.4542   -5.2667    0.0000 C   0  0  0  0  0  0  0  0  0  0  0  0
    3.8542   -4.9042    0.0000 C   0  0  0  0  0  0  0  0  0  0  0  0
    3.2292   -5.9750    0.0000 C   0  0  0  0  0  0  0  0  0  0  0  0
    3.2292   -5.2667    0.0000 C   0  0  0  0  0  0  0  0  0  0  0  0
  2  1  1  0
  3  1  1  0
  4  2  1  0
  5  3  1  0
  6  2  2  0
  7  3  2  0
  8  4  1  0
  9  1  1  0
 10  8  1  0
 11  8  2  0
 12 11  1  0
 13 10  2  0
 14 12  2  0
  5  4  1  0
 14 13  1  0
M  END
> <chembl_id>
CHEMBL797

> <chembl_pref_name>
PHENSUXIMIDE

$$$$

     RDKit          2D

  5  4  0  0  0  0  0  0  0  0999 V2000
    5.3792   -5.0042    0.0000 C   0  0  0  0  0  0  0  0  0  0  0  0
    5.3792   -4.2917    0.0000 O   0  0  0  0  0  0  0  0  0  0  0  0
    5.9917   -5.3542    0.0000 O   0  0  0  0  0  0  0  0  0  0  0  0
    4.1542   -5.0042    0.0000 N   0  0  0  0  0  0  0  0  0  0  0  0
    4.7667   -5.3542    0.0000 C   0  0  0  0  0  0  0  0  0  0  0  0
  2  1  2  0
  3  1  1  0
  4  5  1  0
  5  1  1  0
M  END
> <chembl_id>
CHEMBL773

> <chembl_pref_name>
GLYCINE

$$$$

     RDKit          2D

 16 17  0  0  0  0  0  0  0  0999 V2000
    5.7667  -19.4667    0.0000 Cl  0  0  0  0  0  0  0  0  0  0  0  0
    5.0750  -18.7167    0.0000 C   0  0  0  0  0  0  0  0  0  0  0  0
    5.0750  -17.3042    0.0000 N   0  0  0  0  0  0  0  0  0  0  0  0
    4.4542  -18.3667    0.0000 C   0  0  0  0  0  0  0  0  0  0  0  0
    5.6875  -18.3667    0.0000 C   0  0  0  0  0  0  0  0  0  0  0  0
    4.4542  -17.6542    0.0000 C   0  0  0  0  0  0  0  0  0  0  0  0
    5.6875  -17.6542    0.0000 C   0  0  0  0  0  0  0  0  0  0  0  0
    5.0750  -19.4292    0.0000 N   0  0  0  0  0  0  0  0  0  0  0  0
    3.8417  -18.7167    0.0000 C   0  0  0  0  0  0  0  0  0  0  0  0
    6.3042  -18.7167    0.0000 C   0  0  0  0  0  0  0  0  0  0  0  0
    3.8417  -17.3042    0.0000 C   0  0  0  0  0  0  0  0  0  0  0  0
    6.3042  -17.3042    0.0000 C   0  0  0  0  0  0  0  0  0  0  0  0
    3.2250  -18.3667    0.0000 C   0  0  0  0  0  0  0  0  0  0  0  0
    6.9167  -18.3667    0.0000 C   0  0  0  0  0  0  0  0  0  0  0  0
    3.2250  -17.6542    0.0000 C   0  0  0  0  0  0  0  0  0  0  0  0
    6.9167  -17.6542    0.0000 C   0  0  0  0  0  0  0  0  0  0  0  0
  3  7  1  0
  4  2  2  0
  5  2  1  0
  6  4  1  0
  7  5  1  0
  8  2  1  0
  9  4  1  0
 10  5  2  0
 11  6  1  0
 12  7  2  0
 13  9  1  0
 14 10  1  0
 15 13  1  0
 16 14  2  0
  3  6  2  0
 16 12  1  0
 15 11  1  0
M  END
> <chembl_id>
CHEMBL1677

> <chembl_pref_name>
TACRINE HYDROCHLORIDE

$$$$

     RDKit          2D

 18 19  0  0  0  0  0  0  0  0999 V2000
    3.0250   -5.4292    0.0000 C   0  0  0  0  0  0  0  0  0  0  0  0
    3.0208   -4.6042    0.0000 C   0  0  0  0  0  0  0  0  0  0  0  0
    2.3083   -5.8417    0.0000 N   0  0  0  0  0  0  0  0  0  0  0  0
    3.8042   -4.3417    0.0000 N   0  0  0  0  0  0  0  0  0  0  0  0
    1.5958   -4.6042    0.0000 N   0  0  0  0  0  0  0  0  0  0  0  0
    3.8125   -5.6792    0.0000 N   0  0  0  0  0  0  0  0  0  0  0  0
    2.3083   -4.1875    0.0000 C   0  0  0  0  0  0  0  0  0  0  0  0
    1.5958   -5.4250    0.0000 C   0  0  0  0  0  0  0  0  0  0  0  0
    4.2958   -5.0083    0.0000 C   0  0  0  0  0  0  0  0  0  0  0  0
    3.8042   -6.5042    0.0000 C   0  0  0  0  0  0  0  0  0  0  0  0
    0.8792   -5.8375    0.0000 N   0  0  0  0  0  0  0  0  0  0  0  0
    2.3083   -3.3667    0.0000 O   0  0  0  0  0  0  0  0  0  0  0  0
    4.5125   -6.9208    0.0000 C   0  0  0  0  0  0  0  0  0  0  0  0
    5.2333   -6.5167    0.0000 C   0  0  0  0  0  0  0  0  0  0  0  0
    5.9625   -5.2833    0.0000 O   0  0  0  0  0  0  0  0  0  0  0  0
    6.6583   -6.5333    0.0000 O   0  0  0  0  0  0  0  0  0  0  0  0
    5.2417   -5.6917    0.0000 C   0  0  0  0  0  0  0  0  0  0  0  0
    5.9417   -6.9333    0.0000 C   0  0  0  0  0  0  0  0  0  0  0  0
  2  1  2  0
  3  1  1  0
  4  2  1  0
  5  8  1  0
  6  1  1  0
  7  2  1  0
  8  3  2  0
  9  6  1  0
 10  6  1  0
 11  8  1  0
 12  7  1  0
 13 10  1  0
 14 13  1  0
 15 17  1  0
 16 18  1  0
 17 14  1  0
 18 14  1  0
  4  9  2  0
  7  5  2  0
M  END
> <chembl_id>
CHEMBL1540

> <chembl_pref_name>
PENCICLOVIR

$$$$

     RDKit          2D

 10  8  0  0  0  0  0  0  0  0999 V2000
   -0.8461   -4.1974    0.0000 N   0  0  0  0  0  0  0  0  0  0  0  0
    0.2339   -4.9820    0.0000 N   0  0  0  0  0  0  0  0  0  0  0  0
    0.5359   -1.6500    0.0000 N   0  0  0  0  0  0  0  0  0  0  0  0
   -0.1786   -3.7125    0.0000 C   0  0  0  0  0  0  0  0  0  0  0  0
    0.4888   -4.1974    0.0000 C   0  0  0  0  0  0  0  0  0  0  0  0
   -0.5911   -4.9820    0.0000 C   0  0  0  0  0  0  0  0  0  0  0  0
   -0.1786   -2.8875    0.0000 C   0  0  0  0  0  0  0  0  0  0  0  0
    0.5359   -2.4750    0.0000 C   0  0  0  0  0  0  0  0  0  0  0  0
    0.0000    0.0000    0.0000 Cl  0  0  0  0  0  0  0  0  0  0  0  0
    2.2393    0.0000    0.0000 Cl  0  0  0  0  0  0  0  0  0  0  0  0
  1  4  1  0
  1  6  2  0
  2  5  1  0
  2  6  1  0
  3  8  1  0
  4  5  2  0
  4  7  1  0
  7  8  1  0
M  END
> <chembl_id>
CHEMBL1533310

> <chembl_pref_name>
HISTAMINE DIHYDROCHLORIDE

$$$$

     RDKit          2D

 18 19  0  0  0  0  0  0  0  0999 V2000
   16.7774   -0.3991    0.0000 C   0  0  0  0  0  0  0  0  0  0  0  0
   16.2911    0.2701    0.0000 N   0  0  0  0  0  0  0  0  0  0  0  0
   16.2869   -1.0684    0.0000 N   0  0  0  0  0  0  0  0  0  0  0  0
   17.6005   -0.3991    0.0000 N   0  0  0  0  0  0  0  0  0  0  0  0
   15.5012   -0.8149    0.0000 C   0  0  0  0  0  0  0  0  0  0  0  0
   15.5012    0.0166    0.0000 C   0  0  0  0  0  0  0  0  0  0  0  0
   18.0120    0.3160    0.0000 C   0  0  0  0  0  0  0  0  0  0  0  0
   14.7821   -1.2222    0.0000 C   0  0  0  0  0  0  0  0  0  0  0  0
   17.6005    1.0268    0.0000 O   0  0  0  0  0  0  0  0  0  0  0  0
   14.7862    0.4281    0.0000 C   0  0  0  0  0  0  0  0  0  0  0  0
   14.0754   -0.8107    0.0000 C   0  0  0  0  0  0  0  0  0  0  0  0
   18.8351    0.3160    0.0000 O   0  0  0  0  0  0  0  0  0  0  0  0
   13.3604   -1.2222    0.0000 S   0  0  0  0  0  0  0  0  0  0  0  0
   14.0754    0.0166    0.0000 C   0  0  0  0  0  0  0  0  0  0  0  0
   12.6496   -0.8065    0.0000 C   0  0  0  0  0  0  0  0  0  0  0  0
   19.2466    1.0268    0.0000 C   0  0  0  0  0  0  0  0  0  0  0  0
   11.9388   -1.2180    0.0000 C   0  0  0  0  0  0  0  0  0  0  0  0
   11.2237   -0.8065    0.0000 C   0  0  0  0  0  0  0  0  0  0  0  0
  2  1  1  0
  3  1  2  0
  4  1  1  0
  5  3  1  0
  6  2  1  0
  7  4  1  0
  8  5  2  0
  9  7  2  0
 10  6  2  0
 11  8  1  0
 12  7  1  0
 13 11  1  0
 14 10  1  0
 15 13  1  0
 16 12  1  0
 17 15  1  0
 18 17  1  0
  6  5  1  0
 14 11  2  0
M  END
> <chembl_id>
CHEMBL1483

> <chembl_pref_name>
ALBENDAZOLE

$$$$

     RDKit          2D

 15 16  0  0  0  0  0  0  0  0999 V2000
    2.3750   -3.6792    0.0000 Cl  0  0  0  0  0  0  0  0  0  0  0  0
    5.2042   -2.9083    0.0000 C   0  0  0  0  0  0  0  0  0  0  0  0
    4.6292   -2.4917    0.0000 N   0  0  0  0  0  0  0  0  0  0  0  0
    4.9875   -3.5833    0.0000 N   0  0  0  0  0  0  0  0  0  0  0  0
    4.0583   -2.9083    0.0000 C   0  0  0  0  0  0  0  0  0  0  0  0
    4.2750   -3.5833    0.0000 C   0  0  0  0  0  0  0  0  0  0  0  0
    5.9125   -2.9125    0.0000 S   0  0  0  0  0  0  0  0  0  0  0  0
    3.4417   -2.5542    0.0000 C   0  0  0  0  0  0  0  0  0  0  0  0
    5.5583   -3.9958    0.0000 C   0  0  0  0  0  0  0  0  0  0  0  0
    6.1292   -3.5833    0.0000 C   0  0  0  0  0  0  0  0  0  0  0  0
    3.4417   -1.8417    0.0000 C   0  0  0  0  0  0  0  0  0  0  0  0
    2.8292   -2.9083    0.0000 C   0  0  0  0  0  0  0  0  0  0  0  0
    2.8292   -1.4875    0.0000 C   0  0  0  0  0  0  0  0  0  0  0  0
    2.2167   -2.5542    0.0000 C   0  0  0  0  0  0  0  0  0  0  0  0
    2.2167   -1.8417    0.0000 C   0  0  0  0  0  0  0  0  0  0  0  0
  3  2  2  0
  4  2  1  0
  5  3  1  0
  6  4  1  0
  7  2  1  0
  5  8  1  6
  9  4  1  0
 10  7  1  0
 11  8  1  0
 12  8  2  0
 13 11  2  0
 14 12  1  0
 15 13  1  0
 10  9  1  0
  6  5  1  0
 14 15  2  0
M  END
> <chembl_id>
CHEMBL1770

> <chembl_pref_name>
LEVAMISOLE HYDROCHLORIDE

$$$$

     RDKit          2D

 13 14  0  0  0  0  0  0  0  0999 V2000
   11.2208   -1.6042    0.0000 C   0  0  0  0  0  0  0  0  0  0  0  0
   11.8375   -1.9542    0.0000 C   0  0  0  0  0  0  0  0  0  0  0  0
   11.2292   -3.0250    0.0000 C   0  0  0  0  0  0  0  0  0  0  0  0
   10.6125   -1.9625    0.0000 C   0  0  0  0  0  0  0  0  0  0  0  0
   11.8417   -2.6667    0.0000 C   0  0  0  0  0  0  0  0  0  0  0  0
   10.6125   -2.6708    0.0000 C   0  0  0  0  0  0  0  0  0  0  0  0
   11.2167   -0.8958    0.0000 O   0  0  0  0  0  0  0  0  0  0  0  0
   11.2292   -3.7333    0.0000 O   0  0  0  0  0  0  0  0  0  0  0  0
   12.4500   -1.5958    0.0000 C   0  0  0  0  0  0  0  0  0  0  0  0
   10.0000   -1.6083    0.0000 C   0  0  0  0  0  0  0  0  0  0  0  0
   10.0000   -3.0292    0.0000 C   0  0  0  0  0  0  0  0  0  0  0  0
    9.3875   -1.9625    0.0000 C   0  0  0  0  0  0  0  0  0  0  0  0
    9.3875   -2.6750    0.0000 C   0  0  0  0  0  0  0  0  0  0  0  0
  2  1  1  0
  3  6  1  0
  4  1  1  0
  5  2  2  0
  6  4  1  0
  7  1  2  0
  8  3  2  0
  9  2  1  0
 10  4  2  0
 11  6  2  0
 12 10  1  0
 13 11  1  0
  5  3  1  0
 13 12  2  0
M  END
> <chembl_id>
CHEMBL590

> <chembl_pref_name>
MENADIONE

$$$$

     RDKit          2D

 10 10  0  0  0  0  0  0  0  0999 V2000
    2.8732   -1.6536    0.0000 Cl  0  0  0  0  0  0  0  0  0  0  0  0
    0.0000   -1.6536    0.0000 Cl  0  0  0  0  0  0  0  0  0  0  0  0
    3.5870   -0.4233    0.0000 O   0  0  0  0  0  0  0  0  0  0  0  0
    2.1558   -0.4054    0.0000 C   0  0  0  0  0  0  0  0  0  0  0  0
    2.1558   -1.2304    0.0000 C   0  0  0  0  0  0  0  0  0  0  0  0
    0.7138   -1.2304    0.0000 C   0  0  0  0  0  0  0  0  0  0  0  0
    1.4312   -1.6536    0.0000 C   0  0  0  0  0  0  0  0  0  0  0  0
    1.4312    0.0000    0.0000 C   0  0  0  0  0  0  0  0  0  0  0  0
    0.7138   -0.4054    0.0000 C   0  0  0  0  0  0  0  0  0  0  0  0
    2.8625    0.0000    0.0000 C   0  0  0  0  0  0  0  0  0  0  0  0
  1  5  1  0
  2  6  1  0
  3 10  1  0
  4  5  2  0
  4  8  1  0
  4 10  1  0
  5  7  1  0
  6  7  2  0
  6  9  1  0
  8  9  2  0
M  END
> <chembl_id>
CHEMBL3184437

> <chembl_pref_name>
DICHLOROBENZYL ALCOHOL

$$$$

     RDKit          2D

 11  9  0  0  0  0  0  0  0  0999 V2000
    0.5875   -0.4375    0.0000 Cl  0  0  0  0  0  0  0  0  0  0  0  0
    3.1292   -1.1917    0.0000 C   0  0  0  0  0  0  0  0  0  0  0  0
    0.6667   -1.1542    0.0000 N   0  0  0  0  0  0  0  0  0  0  0  0
    3.1542   -1.8917    0.0000 O   0  0  0  0  0  0  0  0  0  0  0  0
    3.7417   -0.8167    0.0000 N   0  0  0  0  0  0  0  0  0  0  0  0
    2.5167   -0.8417    0.0000 O   0  0  0  0  0  0  0  0  0  0  0  0
    1.9042   -1.1792    0.0000 C   0  0  0  0  0  0  0  0  0  0  0  0
    1.2875   -0.8292    0.0000 C   0  0  0  0  0  0  0  0  0  0  0  0
    1.0167   -1.7667    0.0000 C   0  0  0  0  0  0  0  0  0  0  0  0
    0.3042   -1.7667    0.0000 C   0  0  0  0  0  0  0  0  0  0  0  0
    0.0625   -0.7792    0.0000 C   0  0  0  0  0  0  0  0  0  0  0  0
  3  8  1  0
  4  2  2  0
  5  2  1  0
  6  2  1  0
  7  6  1  0
  8  7  1  0
  9  3  1  0
 10  3  1  0
 11  3  1  0
M  CHG  2   1  -1   3   1
M  END
> <chembl_id>
CHEMBL14

> <chembl_pref_name>
CARBACHOL

$$$$

     RDKit          2D

 14 14  0  0  0  0  0  0  0  0999 V2000
   -1.3000    0.8708    0.0000 C   0  0  0  0  0  0  0  0  0  0  0  0
    0.0625    0.8708    0.0000 N   0  0  0  0  0  0  0  0  0  0  0  0
   -2.1333   -0.3167    0.0000 N   0  0  0  0  0  0  0  0  0  0  0  0
   -1.7458    2.2083    0.0000 C   0  0  0  0  0  0  0  0  0  0  0  0
   -0.6458    3.0083    0.0000 N   0  0  0  0  0  0  0  0  0  0  0  0
    0.5125    2.2083    0.0000 C   0  0  0  0  0  0  0  0  0  0  0  0
    0.9000   -0.3167    0.0000 C   0  0  0  0  0  0  0  0  0  0  0  0
   -1.5458   -1.6000    0.0000 O   0  0  0  0  0  0  0  0  0  0  0  0
   -3.5333   -0.2000    0.0000 O   0  0  0  0  0  0  0  0  0  0  0  0
    0.3000   -1.6000    0.0000 C   0  0  0  0  0  0  0  0  0  0  0  0
   -0.2875   -2.8792    0.0000 O   0  0  0  0  0  0  0  0  0  0  0  0
    3.2167   -1.8542    0.0000 Cl  0  0  0  0  0  0  0  0  0  0  0  0
    1.8500    2.6583    0.0000 C   0  0  0  0  0  0  0  0  0  0  0  0
    1.8500   -2.2792    0.0000 C   0  0  0  0  0  0  0  0  0  0  0  0
  2  1  1  0
  3  1  1  0
  4  1  2  0
  5  4  1  0
  6  2  1  0
  7  2  1  0
  8  3  1  0
  9  3  2  0
 10  7  1  0
 11 10  1  0
 12 14  1  0
 13  6  1  0
 14 10  1  0
  6  5  2  0
M  CHG  2   3   1   8  -1
M  END
> <chembl_id>
CHEMBL1449676

> <chembl_pref_name>
ORNIDAZOLE

$$$$

     RDKit          2D

 13 12  0  0  0  0  0  0  0  0999 V2000
    6.6792   -7.2167    0.0000 Cl  0  0  0  0  0  0  0  0  0  0  0  0
    4.7625   -6.2292    0.0000 C   0  0  0  0  0  0  0  0  0  0  0  0
    4.1625   -5.8667    0.0000 C   0  0  0  0  0  0  0  0  0  0  0  0
    4.7792   -4.8125    0.0000 N   0  0  0  0  0  0  0  0  0  0  0  0
    5.3792   -5.8792    0.0000 C   0  0  0  0  0  0  0  0  0  0  0  0
    4.1542   -5.1667    0.0000 C   0  0  0  0  0  0  0  0  0  0  0  0
    5.3875   -5.1667    0.0000 C   0  0  0  0  0  0  0  0  0  0  0  0
    3.5292   -6.2167    0.0000 O   0  0  0  0  0  0  0  0  0  0  0  0
    4.7542   -6.9292    0.0000 C   0  0  0  0  0  0  0  0  0  0  0  0
    5.9917   -6.2417    0.0000 C   0  0  0  0  0  0  0  0  0  0  0  0
    5.3667   -7.3000    0.0000 O   0  0  0  0  0  0  0  0  0  0  0  0
    6.6125   -5.9000    0.0000 O   0  0  0  0  0  0  0  0  0  0  0  0
    3.5417   -4.8042    0.0000 C   0  0  0  0  0  0  0  0  0  0  0  0
  3  2  2  0
  4  7  1  0
  5  2  1  0
  6  3  1  0
  7  5  2  0
  8  3  1  0
  9  2  1  0
 10  5  1  0
 11  9  1  0
 12 10  1  0
 13  6  1  0
  4  6  2  0
M  END
> <chembl_id>
CHEMBL1200756

> <chembl_pref_name>
PYRIDOXINE HYDROCHLORIDE

$$$$

     RDKit          2D

 19 20  0  0  0  0  0  0  0  0999 V2000
    1.6042   -3.6417    0.0000 C   0  0  0  0  0  0  0  0  0  0  0  0
    1.6167   -4.3542    0.0000 C   0  0  0  0  0  0  0  0  0  0  0  0
    2.8375   -4.3417    0.0000 C   0  0  0  0  0  0  0  0  0  0  0  0
    2.2292   -4.7042    0.0000 C   0  0  0  0  0  0  0  0  0  0  0  0
    2.2167   -3.2917    0.0000 C   0  0  0  0  0  0  0  0  0  0  0  0
    2.8292   -3.6417    0.0000 C   0  0  0  0  0  0  0  0  0  0  0  0
    4.0667   -4.3375    0.0000 C   0  0  0  0  0  0  0  0  0  0  0  0
    4.2875   -3.6667    0.0000 N   0  0  0  0  0  0  0  0  0  0  0  0
    0.9917   -3.2875    0.0000 C   0  0  0  0  0  0  0  0  0  0  0  0
    3.4542   -4.6917    0.0000 C   0  0  0  0  0  0  0  0  0  0  0  0
    4.6542   -4.7500    0.0000 N   0  0  0  0  0  0  0  0  0  0  0  0
    1.0042   -4.7167    0.0000 O   0  0  0  0  0  0  0  0  0  0  0  0
    2.2417   -5.4167    0.0000 C   0  0  0  0  0  0  0  0  0  0  0  0
    4.9917   -3.6625    0.0000 C   0  0  0  0  0  0  0  0  0  0  0  0
    3.4500   -3.2792    0.0000 C   0  0  0  0  0  0  0  0  0  0  0  0
    5.2250   -4.3208    0.0000 C   0  0  0  0  0  0  0  0  0  0  0  0
    1.3417   -2.6667    0.0000 C   0  0  0  0  0  0  0  0  0  0  0  0
    0.6292   -2.6667    0.0000 C   0  0  0  0  0  0  0  0  0  0  0  0
    0.3792   -3.6458    0.0000 C   0  0  0  0  0  0  0  0  0  0  0  0
  2  1  1  0
  3  4  1  0
  4  2  2  0
  5  1  2  0
  6  5  1  0
  7 10  1  0
  8  7  2  0
  9  1  1  0
 10  3  1  0
 11  7  1  0
 12  2  1  0
 13  4  1  0
 14  8  1  0
 15  6  1  0
 16 11  1  0
 17  9  1  0
 18  9  1  0
 19  9  1  0
  6  3  2  0
 14 16  1  0
M  END
> <chembl_id>
CHEMBL762

> <chembl_pref_name>
OXYMETAZOLINE

$$$$

     RDKit          2D

  8  8  0  0  0  0  0  0  0  0999 V2000
    0.0667    1.3083    0.0000 C   0  0  0  0  0  0  0  0  0  0  0  0
   -1.1708    0.5958    0.0000 C   0  0  0  0  0  0  0  0  0  0  0  0
    1.3042    0.5958    0.0000 C   0  0  0  0  0  0  0  0  0  0  0  0
   -2.4250    1.3083    0.0000 O   0  0  0  0  0  0  0  0  0  0  0  0
    2.5417    1.3250    0.0000 O   0  0  0  0  0  0  0  0  0  0  0  0
    0.0667   -1.5417    0.0000 C   0  0  0  0  0  0  0  0  0  0  0  0
   -1.1708   -0.8292    0.0000 C   0  0  0  0  0  0  0  0  0  0  0  0
    1.3042   -0.8292    0.0000 C   0  0  0  0  0  0  0  0  0  0  0  0
  2  1  1  0
  3  1  2  0
  4  2  1  0
  5  3  1  0
  6  8  2  0
  7  2  2  0
  8  3  1  0
  7  6  1  0
M  END
> <chembl_id>
CHEMBL24147

> <chembl_pref_name>
RESORCINOL

$$$$

     RDKit          2D

 10 10  0  0  0  0  0  0  0  0999 V2000
   -0.0083    1.5000    0.0000 C   0  0  0  0  0  0  0  0  0  0  0  0
    1.2167    0.7833    0.0000 C   0  0  0  0  0  0  0  0  0  0  0  0
   -1.2458    0.7833    0.0000 C   0  0  0  0  0  0  0  0  0  0  0  0
    1.2167   -0.6375    0.0000 C   0  0  0  0  0  0  0  0  0  0  0  0
   -1.2458   -0.6375    0.0000 C   0  0  0  0  0  0  0  0  0  0  0  0
   -0.0083   -1.3667    0.0000 C   0  0  0  0  0  0  0  0  0  0  0  0
   -0.0083    2.9208    0.0000 Cl  0  0  0  0  0  0  0  0  0  0  0  0
   -0.0083   -2.7917    0.0000 O   0  0  0  0  0  0  0  0  0  0  0  0
    2.4792    1.5333    0.0000 C   0  0  0  0  0  0  0  0  0  0  0  0
   -2.4833    1.5208    0.0000 C   0  0  0  0  0  0  0  0  0  0  0  0
  2  1  1  0
  3  1  2  0
  4  2  2  0
  5  3  1  0
  6  5  2  0
  7  1  1  0
  8  6  1  0
  9  2  1  0
 10  3  1  0
  4  6  1  0
M  END
> <chembl_id>
CHEMBL398440

> <chembl_pref_name>
CHLOROXYLENOL

$$$$

     RDKit          2D

  7  4  0  0  0  0  0  0  0  0999 V2000
    3.8667   -3.6250    0.0000 K   0  0  0  0  0 15  0  0  0  0  0  0
    2.6083   -4.2667    0.0000 P   0  0  0  0  0  0  0  0  0  0  0  0
    3.2208   -4.6250    0.0000 O   0  0  0  0  0  0  0  0  0  0  0  0
    2.9542   -3.6500    0.0000 O   0  0  0  0  0  0  0  0  0  0  0  0
    2.2500   -3.6500    0.0000 O   0  0  0  0  0  0  0  0  0  0  0  0
    1.9917   -4.6250    0.0000 O   0  0  0  0  0  0  0  0  0  0  0  0
    3.8667   -4.7167    0.0000 K   0  0  0  0  0 15  0  0  0  0  0  0
  3  2  1  0
  4  2  1  0
  5  2  2  0
  6  2  1  0
M  CHG  4   1   1   3  -1   4  -1   7   1
M  END
> <chembl_id>
CHEMBL1200459

> <chembl_pref_name>
POTASSIUM PHOSPHATE, DIBASIC

$$$$

     RDKit          2D

 18 19  0  0  0  0  0  0  0  0999 V2000
   -3.1833    1.1625    0.0000 C   0  0  0  0  0  0  0  0  0  0  0  0
   -2.1250    1.1625    0.0000 C   0  0  0  0  0  0  0  0  0  0  0  0
   -2.6458    2.0875    0.0000 C   0  0  0  0  0  0  0  0  0  0  0  0
    2.4292   -0.3250    0.0000 C   0  0  0  0  0  0  0  0  0  0  0  0
    3.3500   -0.8375    0.0000 C   0  0  0  0  0  0  0  0  0  0  0  0
   -1.2208    0.6500    0.0000 C   0  0  0  0  0  0  0  0  0  0  0  0
    1.5292   -0.8917    0.0000 O   0  0  0  0  0  0  0  0  0  0  0  0
   -3.8625    0.3583    0.0000 Cl  0  0  0  0  0  0  0  0  0  0  0  0
   -4.2208    0.9958    0.0000 Cl  0  0  0  0  0  0  0  0  0  0  0  0
    3.3417   -1.8917    0.0000 O   0  0  0  0  0  0  0  0  0  0  0  0
   -0.3333    1.1625    0.0000 C   0  0  0  0  0  0  0  0  0  0  0  0
   -1.2208   -0.3917    0.0000 C   0  0  0  0  0  0  0  0  0  0  0  0
    0.5917   -0.3917    0.0000 C   0  0  0  0  0  0  0  0  0  0  0  0
    4.2667   -0.3000    0.0000 O   0  0  0  0  0  0  0  0  0  0  0  0
    0.5917    0.6500    0.0000 C   0  0  0  0  0  0  0  0  0  0  0  0
   -0.3333   -0.9125    0.0000 C   0  0  0  0  0  0  0  0  0  0  0  0
    1.9875    0.6458    0.0000 C   0  0  0  0  0  0  0  0  0  0  0  0
    2.7000    0.7000    0.0000 C   0  0  0  0  0  0  0  0  0  0  0  0
  2  1  1  0
  3  1  1  0
  4  7  1  0
  5  4  1  0
  6  2  1  0
  7 13  1  0
  8  1  1  0
  9  1  1  0
 10  5  2  0
 11  6  1  0
 12  6  2  0
 13 16  2  0
 14  5  1  0
 15 11  2  0
 16 12  1  0
 17  4  1  0
 18  4  1  0
  2  3  1  0
 15 13  1  0
M  END
> <chembl_id>
CHEMBL557555

> <chembl_pref_name>
CIPROFIBRATE

$$$$

     RDKit          2D

 12 13  0  0  0  0  0  0  0  0999 V2000
   -3.0347    4.0179    0.0000 C   0  0  0  0  0  0  0  0  0  0  0  0
   -3.4472    4.7323    0.0000 C   0  0  0  0  0  0  0  0  0  0  0  0
   -4.2722    4.7323    0.0000 C   0  0  0  0  0  0  0  0  0  0  0  0
   -4.6847    4.0179    0.0000 C   0  0  0  0  0  0  0  0  0  0  0  0
   -4.2722    3.3034    0.0000 C   0  0  0  0  0  0  0  0  0  0  0  0
   -3.4472    3.3034    0.0000 C   0  0  0  0  0  0  0  0  0  0  0  0
   -2.3202    4.4304    0.0000 C   0  0  0  0  0  0  0  0  0  0  0  0
   -2.2378    3.8043    0.0000 C   0  0  0  0  0  0  0  0  0  0  0  0
   -3.6607    2.5065    0.0000 C   0  0  0  0  0  0  0  0  0  0  0  0
   -2.7327    2.8909    0.0000 N   0  0  0  0  0  0  0  0  0  0  0  0
   -2.7327    2.0659    0.0000 C   0  0  0  0  0  0  0  0  0  0  0  0
   -4.0587    4.1003    0.0000 C   0  0  0  0  0  0  0  0  0  0  0  0
  1  2  1  0
  2  3  1  0
  3  4  1  0
  4  5  1  0
  5  6  1  0
  6  1  1  0
  1  7  1  0
  1  8  1  0
  6  9  1  0
  6 10  1  0
 10 11  1  0
  5 12  1  0
  2 12  1  0
M  END
> <chembl_id>
CHEMBL267936

> <chembl_pref_name>
MECAMYLAMINE

$$$$

     RDKit          2D

  2  0  0  0  0  0  0  0  0  0999 V2000
   -0.9625   -0.0792    0.0000 Na  0  0  0  0  0 15  0  0  0  0  0  0
    0.4667   -0.0292    0.0000 Br  0  0  0  0  0  0  0  0  0  0  0  0
M  CHG  2   1   1   2  -1
M  END
> <chembl_id>
CHEMBL1644694

> <chembl_pref_name>
SODIUM BROMIDE

$$$$

     RDKit          2D

  9  7  0  0  0  0  0  0  0  0999 V2000
    1.3375   -1.0792    0.0000 Cl  0  0  0  0  0  0  0  0  0  0  0  0
   -0.7833   -1.3792    0.0000 N   0  0  0  0  0  0  0  0  0  0  0  0
    0.4792    0.7750    0.0000 C   0  0  0  0  0  0  0  0  0  0  0  0
   -0.7833    0.0500    0.0000 C   0  0  0  0  0  0  0  0  0  0  0  0
    0.4792    2.2208    0.0000 O   0  0  0  0  0  0  0  0  0  0  0  0
    1.7167    0.0500    0.0000 O   0  0  0  0  0  0  0  0  0  0  0  0
    0.5917   -1.7417    0.0000 C   0  0  0  0  0  0  0  0  0  0  0  0
    0.2167   -2.3792    0.0000 C   0  0  0  0  0  0  0  0  0  0  0  0
   -2.0208   -2.0875    0.0000 C   0  0  0  0  0  0  0  0  0  0  0  0
  3  4  1  0
  4  2  1  0
  5  3  2  0
  6  3  1  0
  7  2  1  0
  8  2  1  0
  9  2  1  0
M  CHG  2   1  -1   2   1
M  END
> <chembl_id>
CHEMBL1201130

> <chembl_pref_name>
BETAINE HYDROCHLORIDE

$$$$

     RDKit          2D

 21 22  0  0  0  0  0  0  0  0999 V2000
   -4.2134    0.6188    0.0000 C   0  0  0  0  0  0  0  0  0  0  0  0
   -4.9279    0.2063    0.0000 C   0  0  0  0  0  0  0  0  0  0  0  0
   -4.9279   -0.6188    0.0000 C   0  0  0  0  0  0  0  0  0  0  0  0
   -4.2134   -1.0313    0.0000 C   0  0  0  0  0  0  0  0  0  0  0  0
   -3.4989   -0.6188    0.0000 C   0  0  0  0  0  0  0  0  0  0  0  0
   -3.4989    0.2063    0.0000 C   0  0  0  0  0  0  0  0  0  0  0  0
   -4.2134    1.4438    0.0000 C   0  0  0  0  0  0  0  0  0  0  0  0
   -2.7845    0.6188    0.0000 N   0  0  0  0  0  0  0  0  0  0  0  0
   -2.0700    0.2063    0.0000 C   0  0  0  0  0  0  0  0  0  0  0  0
   -2.0700   -0.6187    0.0000 O   0  0  0  0  0  0  0  0  0  0  0  0
   -2.7845   -1.0313    0.0000 C   0  0  0  0  0  0  0  0  0  0  0  0
   -1.4866    0.7896    0.0000 C   0  0  0  0  0  0  0  0  0  0  0  0
   -0.7722    2.0271    0.0000 C   0  0  0  0  0  0  0  0  0  0  0  0
   -1.4866    1.6146    0.0000 C   0  0  0  0  0  0  0  0  0  0  0  0
   -0.7722    0.3771    0.0000 N   0  0  0  0  0  0  0  0  0  0  0  0
   -0.0577    0.7896    0.0000 C   0  0  0  0  0  0  0  0  0  0  0  0
   -0.0577    1.6146    0.0000 C   0  0  0  0  0  0  0  0  0  0  0  0
   -0.7722   -0.4479    0.0000 C   0  0  0  0  0  0  0  0  0  0  0  0
   -0.0577   -0.8604    0.0000 C   0  0  0  0  0  0  0  0  0  0  0  0
    0.6568   -0.4479    0.0000 C   0  0  0  0  0  0  0  0  0  0  0  0
    1.3713   -0.8604    0.0000 C   0  0  0  0  0  0  0  0  0  0  0  0
  1  2  2  0
  1  6  1  0
  2  3  1  0
  3  4  2  0
  4  5  1  0
  5  6  2  0
  1  7  1  0
  6  8  1  0
  8  9  1  0
  9 10  2  0
  5 11  1  0
 12  9  1  0
 14 12  1  0
 12 15  1  0
 13 14  1  0
 13 17  1  0
 15 16  1  0
 16 17  1  0
 15 18  1  0
 18 19  1  0
 19 20  1  0
 20 21  1  0
M  END
> <chembl_id>
CHEMBL1098

> <chembl_pref_name>
BUPIVACAINE

$$$$

     RDKit          2D

 13  4  0  0  0  0  0  0  0  0999 V2000
   -0.2411   -4.3393    0.0000 O   0  0  0  0  0  0  0  0  0  0  0  0
   -1.6809   -0.3537    0.0000 S   0  0  0  0  0  0  0  0  0  0  0  0
   -2.3930   -0.7702    0.0000 O   0  0  0  0  0  0  0  0  0  0  0  0
   -0.9688   -0.7702    0.0000 O   0  0  0  0  0  0  0  0  0  0  0  0
   -1.2740    0.3633    0.0000 O   0  0  0  0  0  0  0  0  0  0  0  0
   -2.1024    0.3633    0.0000 O   0  0  0  0  0  0  0  0  0  0  0  0
   -1.9280   -1.5599    0.0000 Mg  0  0  0  0  0 15  0  0  0  0  0  0
   -1.6373   -2.5336    0.0000 O   0  0  0  0  0  0  0  0  0  0  0  0
   -0.4286   -2.6786    0.0000 O   0  0  0  0  0  0  0  0  0  0  0  0
    0.5625   -2.5982    0.0000 O   0  0  0  0  0  0  0  0  0  0  0  0
   -1.5000   -3.5625    0.0000 O   0  0  0  0  0  0  0  0  0  0  0  0
   -0.4554   -3.6964    0.0000 O   0  0  0  0  0  0  0  0  0  0  0  0
    0.9375   -3.5893    0.0000 O   0  0  0  0  0  0  0  0  0  0  0  0
  3  2  1  0
  4  2  1  0
  5  2  2  0
  6  2  2  0
M  CHG  3   3  -1   4  -1   7   2
M  END
> <chembl_id>
CHEMBL3989857

> <chembl_pref_name>
MAGNESIUM SULFATE

$$$$

     RDKit          2D

 20 21  0  0  0  0  0  0  0  0999 V2000
   11.0351   -5.6985    0.0000 S   0  0  0  0  0  0  0  0  0  0  0  0
   14.6860   -6.7704    0.0000 N   0  0  0  0  0  0  0  0  0  0  0  0
   13.8935   -5.6940    0.0000 C   0  0  0  0  0  0  0  0  0  0  0  0
   14.6768   -5.4329    0.0000 C   0  0  0  0  0  0  0  0  0  0  0  0
   15.1670   -6.0970    0.0000 C   0  0  0  0  0  0  0  0  0  0  0  0
   13.8935   -6.5185    0.0000 C   0  0  0  0  0  0  0  0  0  0  0  0
   10.6182   -6.4223    0.0000 O   0  0  0  0  0  0  0  0  0  0  0  0
   11.4428   -6.4223    0.0000 O   0  0  0  0  0  0  0  0  0  0  0  0
   11.7497   -5.2862    0.0000 C   0  0  0  0  0  0  0  0  0  0  0  0
   13.1743   -5.2817    0.0000 C   0  0  0  0  0  0  0  0  0  0  0  0
   10.3205   -5.2862    0.0000 N   0  0  0  0  0  0  0  0  0  0  0  0
   12.4643   -5.6940    0.0000 C   0  0  0  0  0  0  0  0  0  0  0  0
   15.0891   -4.7228    0.0000 C   0  0  0  0  0  0  0  0  0  0  0  0
   13.1743   -6.9353    0.0000 C   0  0  0  0  0  0  0  0  0  0  0  0
   16.3259   -4.0082    0.0000 N   0  0  0  0  0  0  0  0  0  0  0  0
   15.9137   -4.7228    0.0000 C   0  0  0  0  0  0  0  0  0  0  0  0
   12.4643   -6.5230    0.0000 C   0  0  0  0  0  0  0  0  0  0  0  0
    9.6059   -5.6985    0.0000 C   0  0  0  0  0  0  0  0  0  0  0  0
   15.9137   -3.2936    0.0000 C   0  0  0  0  0  0  0  0  0  0  0  0
   17.1505   -4.0082    0.0000 C   0  0  0  0  0  0  0  0  0  0  0  0
  2  6  1  0
  3 10  2  0
  4  3  1  0
  5  4  2  0
  6 14  2  0
  7  1  2  0
  8  1  2  0
  9  1  1  0
 10 12  1  0
 11  1  1  0
 12  9  1  0
 13  4  1  0
 14 17  1  0
 15 16  1  0
 16 13  1  0
 17 12  2  0
 18 11  1  0
 19 15  1  0
 20 15  1  0
  3  6  1  0
  2  5  1  0
M  END
> <chembl_id>
CHEMBL128

> <chembl_pref_name>
SUMATRIPTAN

$$$$

     RDKit          2D

 10  9  0  0  0  0  0  0  0  0999 V2000
    6.7667   -7.2792    0.0000 Na  0  0  0  0  0 15  0  0  0  0  0  0
    5.5375   -6.8917    0.0000 C   0  0  0  0  0  0  0  0  0  0  0  0
    6.1542   -7.2417    0.0000 O   0  0  0  0  0  0  0  0  0  0  0  0
    5.5417   -6.1792    0.0000 O   0  0  0  0  0  0  0  0  0  0  0  0
    4.9167   -7.2417    0.0000 C   0  0  0  0  0  0  0  0  0  0  0  0
    4.9250   -7.9542    0.0000 C   0  0  0  0  0  0  0  0  0  0  0  0
    4.3125   -6.8917    0.0000 C   0  0  0  0  0  0  0  0  0  0  0  0
    3.6917   -7.2542    0.0000 C   0  0  0  0  0  0  0  0  0  0  0  0
    4.3042   -8.3125    0.0000 C   0  0  0  0  0  0  0  0  0  0  0  0
    3.6917   -7.9542    0.0000 C   0  0  0  0  0  0  0  0  0  0  0  0
  3  2  1  0
  4  2  2  0
  5  2  1  0
  6  5  2  0
  7  5  1  0
  8  7  2  0
  9  6  1  0
 10  9  2  0
 10  8  1  0
M  CHG  2   1   1   3  -1
M  END
> <chembl_id>
CHEMBL1356

> <chembl_pref_name>
SODIUM BENZOATE

$$$$

     RDKit          2D

 10  9  0  0  0  0  0  0  0  0999 V2000
    0.6792   -0.3667    0.0000 N   0  0  0  0  0  0  0  0  0  0  0  0
   -3.2208   -1.1500    0.0000 O   0  0  0  0  0  0  0  0  0  0  0  0
    3.3000   -3.3167    0.0000 O   0  0  0  0  0  0  0  0  0  0  0  0
    1.9417    3.4208    0.0000 O   0  0  0  0  0  0  0  0  0  0  0  0
   -0.6000   -1.1042    0.0000 C   0  0  0  0  0  0  0  0  0  0  0  0
    1.9667   -1.1042    0.0000 C   0  0  0  0  0  0  0  0  0  0  0  0
    0.6792    1.1333    0.0000 C   0  0  0  0  0  0  0  0  0  0  0  0
   -1.9375   -0.4125    0.0000 C   0  0  0  0  0  0  0  0  0  0  0  0
    1.9667   -2.5792    0.0000 C   0  0  0  0  0  0  0  0  0  0  0  0
    1.9417    1.8958    0.0000 C   0  0  0  0  0  0  0  0  0  0  0  0
  2  8  1  0
  3  9  1  0
  4 10  1  0
  5  1  1  0
  6  1  1  0
  7  1  1  0
  8  5  1  0
  9  6  1  0
 10  7  1  0
M  END
> <chembl_id>
CHEMBL446061

> <chembl_pref_name>
TROLAMINE

$$$$

     RDKit          2D

 20 21  0  0  0  0  0  0  0  0999 V2000
    0.0000    2.9708    0.0000 Cl  0  0  0  0  0  0  0  0  0  0  0  0
   -0.4208   -0.6125    0.0000 N   0  0  0  0  0  0  0  0  0  0  0  0
    0.4125   -1.6375    0.0000 C   0  0  0  0  0  0  0  0  0  0  0  0
    0.0375    0.6208    0.0000 C   0  0  0  0  0  0  0  0  0  0  0  0
    1.3500    0.8333    0.0000 N   0  0  0  0  0  0  0  0  0  0  0  0
    1.7167   -1.4167    0.0000 C   0  0  0  0  0  0  0  0  0  0  0  0
    2.1875   -0.1792    0.0000 C   0  0  0  0  0  0  0  0  0  0  0  0
   -1.7250   -0.8167    0.0000 C   0  0  0  0  0  0  0  0  0  0  0  0
   -0.0458   -2.8792    0.0000 O   0  0  0  0  0  0  0  0  0  0  0  0
   -2.1958   -2.0667    0.0000 C   0  0  0  0  0  0  0  0  0  0  0  0
   -0.7958    1.6458    0.0000 C   0  0  0  0  0  0  0  0  0  0  0  0
    2.5667   -2.4417    0.0000 C   0  0  0  0  0  0  0  0  0  0  0  0
   -2.5708    0.1875    0.0000 C   0  0  0  0  0  0  0  0  0  0  0  0
    3.5042    0.0208    0.0000 C   0  0  0  0  0  0  0  0  0  0  0  0
   -1.3583   -3.0917    0.0000 C   0  0  0  0  0  0  0  0  0  0  0  0
   -3.5083   -2.2792    0.0000 C   0  0  0  0  0  0  0  0  0  0  0  0
    3.8792   -2.2292    0.0000 C   0  0  0  0  0  0  0  0  0  0  0  0
   -3.8833   -0.0125    0.0000 C   0  0  0  0  0  0  0  0  0  0  0  0
    4.3417   -0.9917    0.0000 C   0  0  0  0  0  0  0  0  0  0  0  0
   -4.3458   -1.2542    0.0000 C   0  0  0  0  0  0  0  0  0  0  0  0
  3  2  1  0
  4  2  1  0
  5  4  2  0
  6  3  1  0
  7  5  1  0
  8  2  1  0
  9  3  2  0
 10  8  1  0
 11  4  1  0
 12  6  1  0
 13  8  2  0
 14  7  1  0
 15 10  1  0
 16 10  2  0
 17 12  2  0
 18 13  1  0
 19 14  2  0
 20 18  2  0
  6  7  2  0
 16 20  1  0
 17 19  1  0
M  END
> <chembl_id>
CHEMBL2106829

> <chembl_pref_name>
METHAQUALONE HYDROCHLORIDE

$$$$

     RDKit          2D

 16 17  0  0  0  0  0  0  0  0999 V2000
    2.9667   -4.7542    0.0000 C   0  0  0  0  0  0  0  0  0  0  0  0
    3.2042   -4.1167    0.0000 N   0  0  0  0  0  0  0  0  0  0  0  0
    3.5292   -5.2042    0.0000 O   0  0  0  0  0  0  0  0  0  0  0  0
    2.3167   -4.9750    0.0000 O   0  0  0  0  0  0  0  0  0  0  0  0
    4.1250   -4.8125    0.0000 C   0  0  0  0  0  0  0  0  0  0  0  0
    5.9792   -5.1792    0.0000 C   0  0  0  0  0  0  0  0  0  0  0  0
    7.2167   -5.1750    0.0000 C   0  0  0  0  0  0  0  0  0  0  0  0
    6.5750   -6.2500    0.0000 C   0  0  0  0  0  0  0  0  0  0  0  0
    3.9125   -4.1292    0.0000 C   0  0  0  0  0  0  0  0  0  0  0  0
    5.3292   -4.8125    0.0000 O   0  0  0  0  0  0  0  0  0  0  0  0
    5.9792   -5.9042    0.0000 C   0  0  0  0  0  0  0  0  0  0  0  0
    6.5917   -4.8125    0.0000 C   0  0  0  0  0  0  0  0  0  0  0  0
    7.2167   -5.9000    0.0000 C   0  0  0  0  0  0  0  0  0  0  0  0
    4.7292   -5.1625    0.0000 C   0  0  0  0  0  0  0  0  0  0  0  0
    7.8542   -4.8042    0.0000 C   0  0  0  0  0  0  0  0  0  0  0  0
    6.5667   -6.9375    0.0000 C   0  0  0  0  0  0  0  0  0  0  0  0
  2  1  1  0
  3  1  1  0
  4  1  2  0
  5  3  1  0
  6 10  1  0
  7 12  1  0
  8 11  2  0
  9  2  1  0
 10 14  1  0
 11  6  1  0
 12  6  2  0
 13  7  2  0
 14  5  1  0
 15  7  1  0
 16  8  1  0
  9  5  1  0
 13  8  1  0
M  END
> <chembl_id>
CHEMBL1079604

> <chembl_pref_name>
METAXALONE

$$$$

     RDKit          2D

 17 18  0  0  0  0  0  0  0  0999 V2000
    2.2417   -4.0667    0.0000 S   0  0  0  0  0  0  0  0  0  0  0  0
    2.8500   -3.0042    0.0000 N   0  0  0  0  0  0  0  0  0  0  0  0
    2.8500   -3.7167    0.0000 C   0  0  0  0  0  0  0  0  0  0  0  0
    2.2417   -2.6542    0.0000 C   0  0  0  0  0  0  0  0  0  0  0  0
    1.6292   -3.0042    0.0000 C   0  0  0  0  0  0  0  0  0  0  0  0
    1.6292   -3.7167    0.0000 C   0  0  0  0  0  0  0  0  0  0  0  0
    2.5917   -4.6792    0.0000 O   0  0  0  0  0  0  0  0  0  0  0  0
    1.8875   -4.6792    0.0000 O   0  0  0  0  0  0  0  0  0  0  0  0
    3.4625   -4.0667    0.0000 C   0  0  0  0  0  0  0  0  0  0  0  0
    2.2417   -1.9417    0.0000 O   0  0  0  0  0  0  0  0  0  0  0  0
    4.0750   -3.7250    0.0000 C   0  0  0  0  0  0  0  0  0  0  0  0
    3.4750   -4.7750    0.0000 C   0  0  0  0  0  0  0  0  0  0  0  0
    3.4625   -2.6542    0.0000 C   0  0  0  0  0  0  0  0  0  0  0  0
    4.7000   -4.7667    0.0000 C   0  0  0  0  0  0  0  0  0  0  0  0
    4.0792   -5.1250    0.0000 C   0  0  0  0  0  0  0  0  0  0  0  0
    4.6792   -4.0667    0.0000 C   0  0  0  0  0  0  0  0  0  0  0  0
    5.3250   -5.1042    0.0000 Cl  0  0  0  0  0  0  0  0  0  0  0  0
  2  3  1  0
  3  1  1  0
  4  5  1  0
  5  6  1  0
  6  1  1  0
  7  1  2  0
  8  1  2  0
  9  3  1  0
 10  4  2  0
 11  9  1  0
 12  9  2  0
 13  2  1  0
 14 15  2  0
 15 12  1  0
 16 11  2  0
 17 14  1  0
  2  4  1  0
 16 14  1  0
M  END
> <chembl_id>
CHEMBL1200714

> <chembl_pref_name>
CHLORMEZANONE

$$$$

     RDKit          2D

 22 25  0  0  0  0  0  0  0  0999 V2000
    6.0917   -5.1042    0.0000 C   0  0  0  0  0  0  0  0  0  0  0  0
    5.4625   -5.4125    0.0000 C   0  0  0  0  0  0  0  0  0  0  0  0
    6.7292   -5.4167    0.0000 C   0  0  0  0  0  0  0  0  0  0  0  0
    6.1000   -4.3917    0.0000 C   0  0  0  0  0  0  0  0  0  0  0  0
    5.7542   -6.6625    0.0000 C   0  0  0  0  0  0  0  0  0  0  0  0
    6.4500   -6.6667    0.0000 C   0  0  0  0  0  0  0  0  0  0  0  0
    6.1000   -2.9792    0.0000 N   0  0  0  0  0  0  0  0  0  0  0  0
    6.8917   -6.1167    0.0000 C   0  0  0  0  0  0  0  0  0  0  0  0
    5.3042   -6.1125    0.0000 C   0  0  0  0  0  0  0  0  0  0  0  0
    5.4917   -4.0417    0.0000 C   0  0  0  0  0  0  0  0  0  0  0  0
    6.7125   -4.0417    0.0000 C   0  0  0  0  0  0  0  0  0  0  0  0
    5.4917   -3.3292    0.0000 C   0  0  0  0  0  0  0  0  0  0  0  0
    6.7125   -3.3375    0.0000 C   0  0  0  0  0  0  0  0  0  0  0  0
    4.9417   -4.9292    0.0000 C   0  0  0  0  0  0  0  0  0  0  0  0
    7.2542   -4.9292    0.0000 C   0  0  0  0  0  0  0  0  0  0  0  0
    6.1000   -2.2750    0.0000 C   0  0  0  0  0  0  0  0  0  0  0  0
    7.5750   -6.3167    0.0000 C   0  0  0  0  0  0  0  0  0  0  0  0
    4.6292   -6.3167    0.0000 C   0  0  0  0  0  0  0  0  0  0  0  0
    7.9375   -5.1417    0.0000 C   0  0  0  0  0  0  0  0  0  0  0  0
    4.2542   -5.1375    0.0000 C   0  0  0  0  0  0  0  0  0  0  0  0
    8.0917   -5.8375    0.0000 C   0  0  0  0  0  0  0  0  0  0  0  0
    4.1042   -5.8292    0.0000 C   0  0  0  0  0  0  0  0  0  0  0  0
  2  1  1  0
  3  1  1  0
  4  1  2  0
  5  9  1  0
  6  8  1  0
  7 13  1  0
  8  3  1  0
  9  2  2  0
 10  4  1  0
 11  4  1  0
 12 10  1  0
 13 11  1  0
 14  2  1  0
 15  3  2  0
 16  7  1  0
 17  8  2  0
 18  9  1  0
 19 15  1  0
 20 14  2  0
 21 19  2  0
 22 20  1  0
  7 12  1  0
  6  5  2  0
 21 17  1  0
 22 18  2  0
M  END
> <chembl_id>
CHEMBL516

> <chembl_pref_name>
CYPROHEPTADINE

$$$$

     RDKit          2D

 21 23  0  0  0  0  0  0  0  0999 V2000
   -0.3125    1.2583    0.0000 N   0  0  0  0  0  0  0  0  0  0  0  0
    0.2792    0.4125    0.0000 N   0  0  0  0  0  0  0  0  0  0  0  0
   -0.3125   -0.4292    0.0000 C   0  0  0  0  0  0  0  0  0  0  0  0
   -1.2958   -0.0917    0.0000 C   0  0  0  0  0  0  0  0  0  0  0  0
   -1.2958    0.9333    0.0000 C   0  0  0  0  0  0  0  0  0  0  0  0
    0.0375    2.2333    0.0000 C   0  0  0  0  0  0  0  0  0  0  0  0
    0.0375   -1.4042    0.0000 O   0  0  0  0  0  0  0  0  0  0  0  0
    1.4000   -2.5792    0.0000 C   0  0  0  0  0  0  0  0  0  0  0  0
    2.4000   -2.7667    0.0000 O   0  0  0  0  0  0  0  0  0  0  0  0
    1.0417   -1.6000    0.0000 C   0  0  0  0  0  0  0  0  0  0  0  0
   -2.1625   -0.6167    0.0000 C   0  0  0  0  0  0  0  0  0  0  0  0
    1.0417    2.4208    0.0000 C   0  0  0  0  0  0  0  0  0  0  0  0
    0.7167   -3.3375    0.0000 O   0  0  0  0  0  0  0  0  0  0  0  0
   -2.1625    1.4458    0.0000 C   0  0  0  0  0  0  0  0  0  0  0  0
    1.4000    3.4000    0.0000 C   0  0  0  0  0  0  0  0  0  0  0  0
    1.7167    1.6625    0.0000 C   0  0  0  0  0  0  0  0  0  0  0  0
   -3.0625   -0.0917    0.0000 C   0  0  0  0  0  0  0  0  0  0  0  0
   -3.0625    0.9333    0.0000 C   0  0  0  0  0  0  0  0  0  0  0  0
    2.7292    1.8583    0.0000 C   0  0  0  0  0  0  0  0  0  0  0  0
    2.4000    3.5958    0.0000 C   0  0  0  0  0  0  0  0  0  0  0  0
    3.0542    2.8333    0.0000 C   0  0  0  0  0  0  0  0  0  0  0  0
  2  1  1  0
  3  2  2  0
  4  5  2  0
  5  1  1  0
  6  1  1  0
  7  3  1  0
  8 10  1  0
  9  8  2  0
 10  7  1  0
 11  4  1  0
 12  6  1  0
 13  8  1  0
 14  5  1  0
 15 12  1  0
 16 12  2  0
 17 18  1  0
 18 14  2  0
 19 16  1  0
 20 15  2  0
 21 19  2  0
  4  3  1  0
 11 17  2  0
 20 21  1  0
M  END
> <chembl_id>
CHEMBL1089221

> <chembl_pref_name>
BENDAZAC

$$$$

     RDKit          2D

 10 10  0  0  0  0  0  0  0  0999 V2000
   -2.7925    1.4991    0.0000 C   0  0  0  0  0  0  0  0  0  0  0  0
   -3.5070    1.0866    0.0000 C   0  0  0  0  0  0  0  0  0  0  0  0
   -3.5070    0.2616    0.0000 C   0  0  0  0  0  0  0  0  0  0  0  0
   -2.7925   -0.1509    0.0000 C   0  0  0  0  0  0  0  0  0  0  0  0
   -2.0780    0.2616    0.0000 C   0  0  0  0  0  0  0  0  0  0  0  0
   -2.0780    1.0866    0.0000 C   0  0  0  0  0  0  0  0  0  0  0  0
   -1.3635   -0.1510    0.0000 C   0  0  0  0  0  0  0  0  0  0  0  0
   -0.6491    0.2615    0.0000 N   0  0  0  0  0  0  0  0  0  0  0  0
   -1.3636   -0.9760    0.0000 C   0  0  0  0  0  0  0  0  0  0  0  0
    0.0654   -0.1510    0.0000 N   0  0  0  0  0  0  0  0  0  0  0  0
  1  2  1  0
  1  6  2  0
  2  3  2  0
  3  4  1  0
  4  5  2  0
  5  6  1  0
  5  7  1  0
  7  8  1  0
  7  9  1  0
  8 10  1  0
M  END
> <chembl_id>
CHEMBL1909283

> <chembl_pref_name>
MEBANAZINE

$$$$

     RDKit          2D

 15 15  0  0  0  0  0  0  0  0999 V2000
   -0.7607   -1.9305    0.0000 C   0  0  0  0  0  0  0  0  0  0  0  0
   -0.0462    1.7820    0.0000 C   0  0  0  0  0  0  0  0  0  0  0  0
    0.6683    2.1945    0.0000 C   0  0  0  0  0  0  0  0  0  0  0  0
    0.6683    3.0195    0.0000 C   0  0  0  0  0  0  0  0  0  0  0  0
    1.3827    1.7820    0.0000 C   0  0  0  0  0  0  0  0  0  0  0  0
   -0.0462   -1.5180    0.0000 C   0  0  0  0  0  0  0  0  0  0  0  0
    0.6683   -1.9305    0.0000 C   0  0  0  0  0  0  0  0  0  0  0  0
   -0.0462   -0.6930    0.0000 C   0  0  0  0  0  0  0  0  0  0  0  0
   -0.7607   -0.2805    0.0000 C   0  0  0  0  0  0  0  0  0  0  0  0
   -0.7607    0.5445    0.0000 C   0  0  0  0  0  0  0  0  0  0  0  0
   -0.0462    0.9570    0.0000 C   0  0  0  0  0  0  0  0  0  0  0  0
    0.6683    0.5445    0.0000 C   0  0  0  0  0  0  0  0  0  0  0  0
    0.6683   -0.2805    0.0000 C   0  0  0  0  0  0  0  0  0  0  0  0
   -0.7607   -2.7555    0.0000 O   0  0  0  0  0  0  0  0  0  0  0  0
   -1.4751   -1.5180    0.0000 O   0  0  0  0  0  0  0  0  0  0  0  0
  1  6  1  0
  1 14  1  0
  1 15  2  0
  2  3  1  0
 11  2  1  0
  3  4  1  0
  3  5  1  0
  6  7  1  6
  6  8  1  0
  8  9  2  0
 13  8  1  0
 10  9  1  0
 10 11  2  0
 11 12  1  0
 12 13  2  0
M  END
> <chembl_id>
CHEMBL175

> <chembl_pref_name>
DEXIBUPROFEN

$$$$

     RDKit          2D

 14 14  0  0  0  0  0  0  0  0999 V2000
    0.8917   -0.4042    0.0000 S   0  0  0  0  0  0  0  0  0  0  0  0
    2.2292   -0.4042    0.0000 N   0  0  0  0  0  0  0  0  0  0  0  0
    2.8542    0.7083    0.0000 C   0  0  0  0  0  0  0  0  0  0  0  0
   -0.4083   -0.4042    0.0000 C   0  0  0  0  0  0  0  0  0  0  0  0
    0.8917    0.8833    0.0000 O   0  0  0  0  0  0  0  0  0  0  0  0
    0.8917   -1.7542    0.0000 O   0  0  0  0  0  0  0  0  0  0  0  0
    4.2000    0.7083    0.0000 O   0  0  0  0  0  0  0  0  0  0  0  0
   -1.0833    0.7083    0.0000 C   0  0  0  0  0  0  0  0  0  0  0  0
   -1.1000   -1.5292    0.0000 C   0  0  0  0  0  0  0  0  0  0  0  0
    2.4542    1.8708    0.0000 N   0  0  0  0  0  0  0  0  0  0  0  0
   -3.0000   -0.4042    0.0000 C   0  0  0  0  0  0  0  0  0  0  0  0
   -4.1000   -0.4292    0.0000 N   0  0  0  0  0  0  0  0  0  0  0  0
   -2.3750    0.7083    0.0000 C   0  0  0  0  0  0  0  0  0  0  0  0
   -2.4208   -1.5292    0.0000 C   0  0  0  0  0  0  0  0  0  0  0  0
  2  1  1  0
  3  2  1  0
  4  1  1  0
  5  1  2  0
  6  1  2  0
  7  3  2  0
  8  4  1  0
  9  4  2  0
 10  3  1  0
 11 14  2  0
 12 11  1  0
 13  8  2  0
 14  9  1  0
 13 11  1  0
M  END
> <chembl_id>
CHEMBL139877

> <chembl_pref_name>
SULFACARBAMIDE

$$$$

     RDKit          2D

 17 16  0  0  0  0  0  0  0  0999 V2000
    3.6667    0.6458    0.0000 Na  0  0  0  0  0 15  0  0  0  0  0  0
    2.3667    0.0000    0.0000 N   0  0  0  0  0  0  0  0  0  0  0  0
   -0.1458    0.0000    0.0000 C   0  0  0  0  0  0  0  0  0  0  0  0
    1.1042    2.1875    0.0000 N   0  0  0  0  0  0  0  0  0  0  0  0
    1.1042   -0.7292    0.0000 C   0  0  0  0  0  0  0  0  0  0  0  0
    2.3667    1.4625    0.0000 C   0  0  0  0  0  0  0  0  0  0  0  0
   -0.1458    1.4625    0.0000 C   0  0  0  0  0  0  0  0  0  0  0  0
   -1.4875    0.0208    0.0000 C   0  0  0  0  0  0  0  0  0  0  0  0
    3.6167    2.1875    0.0000 O   0  0  0  0  0  0  0  0  0  0  0  0
    1.1042   -2.1542    0.0000 O   0  0  0  0  0  0  0  0  0  0  0  0
   -1.3958    2.1875    0.0000 O   0  0  0  0  0  0  0  0  0  0  0  0
   -1.2125   -1.0042    0.0000 C   0  0  0  0  0  0  0  0  0  0  0  0
   -2.2000   -1.3042    0.0000 C   0  0  0  0  0  0  0  0  0  0  0  0
   -3.6333   -1.3042    0.0000 C   0  0  0  0  0  0  0  0  0  0  0  0
   -1.2125   -2.2167    0.0000 C   0  0  0  0  0  0  0  0  0  0  0  0
   -4.2708   -2.5625    0.0000 C   0  0  0  0  0  0  0  0  0  0  0  0
   -4.3458   -0.1167    0.0000 C   0  0  0  0  0  0  0  0  0  0  0  0
  3  5  1  0
  4  6  1  0
  5  2  1  0
  6  2  2  0
  7  4  1  0
  8  3  1  0
  9  6  1  0
 10  5  2  0
 11  7  2  0
 12  3  1  0
 13  8  1  0
 14 13  1  0
 15 12  1  0
 16 14  1  0
 17 14  1  0
  3  7  1  0
M  CHG  2   1   1   9  -1
M  END
> <chembl_id>
CHEMBL2105941

> <chembl_pref_name>
AMOBARBITAL SODIUM

$$$$

     RDKit          2D

 13 12  0  0  0  0  0  0  0  0999 V2000
   -1.0208    2.3083    0.0000 O   0  0  0  0  0  0  0  0  0  0  0  0
    2.1292   -0.4667    0.0000 C   0  0  0  0  0  0  0  0  0  0  0  0
   -2.3833   -0.5000    0.0000 C   0  0  0  0  0  0  0  0  0  0  0  0
    0.6125   -0.4792    0.0000 C   0  0  0  0  0  0  0  0  0  0  0  0
   -0.1083   -1.7917    0.0000 C   0  0  0  0  0  0  0  0  0  0  0  0
   -0.1208    0.8000    0.0000 C   0  0  0  0  0  0  0  0  0  0  0  0
   -1.6208   -1.8000    0.0000 C   0  0  0  0  0  0  0  0  0  0  0  0
   -1.6458    0.7875    0.0000 C   0  0  0  0  0  0  0  0  0  0  0  0
    2.5000    0.9833    0.0000 O   0  0  0  0  0  0  0  0  0  0  0  0
   -3.5458    0.4458    0.0000 O   0  0  0  0  0  0  0  0  0  0  0  0
    2.0000   -1.9792    0.0000 C   0  0  0  0  0  0  0  0  0  0  0  0
    3.6167   -0.7250    0.0000 C   0  0  0  0  0  0  0  0  0  0  0  0
   -3.5375   -1.4792    0.0000 C   0  0  0  0  0  0  0  0  0  0  0  0
  3  8  1  0
  4  2  1  0
  5  4  1  0
  6  4  1  0
  7  5  1  0
  8  6  1  0
  9  2  1  0
 10  3  1  0
 11  2  1  0
 12  2  1  0
 13  3  1  0
  7  3  1  0
M  END
> <chembl_id>
CHEMBL2105614

> <chembl_pref_name>
TERPIN HYDRATE

$$$$

     RDKit          2D

 21 23  0  0  1  0  0  0  0  0999 V2000
    1.4167   -0.7292    0.0000 C   0  0  0  0  0  0  0  0  0  0  0  0
    2.1792    0.9208    0.0000 N   0  0  0  0  0  0  0  0  0  0  0  0
    2.4125   -0.1667    0.0000 C   0  0  0  0  0  0  0  0  0  0  0  0
    0.5917    0.0208    0.0000 C   0  0  0  0  0  0  0  0  0  0  0  0
    1.0625    1.0458    0.0000 C   0  0  0  0  0  0  0  0  0  0  0  0
    3.2375   -0.9375    0.0000 N   0  0  0  0  0  0  0  0  0  0  0  0
    1.6500   -1.8292    0.0000 C   0  0  0  0  0  0  0  0  0  0  0  0
   -2.7500   -0.2750    0.0000 C   0  0  0  0  0  0  0  0  0  0  0  0
    0.4125    1.9708    0.0000 C   0  0  0  0  0  0  0  0  0  0  0  0
   -0.5083   -0.0667    0.0000 C   0  0  0  0  0  0  0  0  0  0  0  0
    2.7667   -1.9625    0.0000 C   0  0  0  0  0  0  0  0  0  0  0  0
   -2.2833    0.7333    0.0000 O   0  0  0  0  0  0  0  0  0  0  0  0
   -1.1625    0.8333    0.0000 C   0  0  0  0  0  0  0  0  0  0  0  0
   -2.1083   -1.1917    0.0000 O   0  0  0  0  0  0  0  0  0  0  0  0
   -3.8833   -0.3792    0.0000 N   0  0  0  0  0  0  0  0  0  0  0  0
    2.9500    1.7458    0.0000 C   0  0  0  0  0  0  0  0  0  0  0  0
    0.4417   -1.2792    0.0000 C   0  0  0  0  0  0  0  0  0  0  0  0
   -0.6875    1.8583    0.0000 C   0  0  0  0  0  0  0  0  0  0  0  0
    4.3417   -0.7125    0.0000 C   0  0  0  0  0  0  0  0  0  0  0  0
   -4.3458   -1.4042    0.0000 C   0  0  0  0  0  0  0  0  0  0  0  0
    3.3917    0.3833    0.0000 H   0  0  0  0  0  0  0  0  0  0  0  0
  2  3  1  0
  3  1  1  0
  4  1  1  0
  5  4  2  0
  6  3  1  0
  7  1  1  0
  8 12  1  0
  9  5  1  0
 10  4  1  0
 11  7  1  0
 12 13  1  0
 13 10  2  0
 14  8  2  0
 15  8  1  0
 16  2  1  0
  1 17  1  6
 18 13  1  0
 19  6  1  0
 20 15  1  0
  3 21  1  6
  6 11  1  0
  5  2  1  0
  9 18  2  0
M  END
> <chembl_id>
CHEMBL94

> <chembl_pref_name>
PHYSOSTIGMINE

$$$$

     RDKit          2D

 13 13  0  0  0  0  0  0  0  0999 V2000
    6.7042  -10.3542    0.0000 C   0  0  0  0  0  0  0  0  0  0  0  0
    5.9917  -10.7667    0.0000 N   0  0  0  0  0  0  0  0  0  0  0  0
    5.2750  -10.3542    0.0000 N   0  0  0  0  0  0  0  0  0  0  0  0
    6.7042   -9.5250    0.0000 O   0  0  0  0  0  0  0  0  0  0  0  0
    8.8542  -11.5917    0.0000 N   0  0  0  0  0  0  0  0  0  0  0  0
    7.4250  -10.7667    0.0000 C   0  0  0  0  0  0  0  0  0  0  0  0
    4.5542  -10.7667    0.0000 C   0  0  0  0  0  0  0  0  0  0  0  0
    8.1375  -12.0042    0.0000 C   0  0  0  0  0  0  0  0  0  0  0  0
    8.8542  -10.7667    0.0000 C   0  0  0  0  0  0  0  0  0  0  0  0
    7.4250  -11.5917    0.0000 C   0  0  0  0  0  0  0  0  0  0  0  0
    8.1375  -10.3542    0.0000 C   0  0  0  0  0  0  0  0  0  0  0  0
    4.5542  -11.5917    0.0000 C   0  0  0  0  0  0  0  0  0  0  0  0
    3.8417  -10.3542    0.0000 C   0  0  0  0  0  0  0  0  0  0  0  0
  2  1  1  0
  3  2  1  0
  4  1  2  0
  5  9  1  0
  6  1  1  0
  7  3  1  0
  8 10  1  0
  9 11  2  0
 10  6  2  0
 11  6  1  0
 12  7  1  0
 13  7  1  0
  8  5  2  0
M  END
> <chembl_id>
CHEMBL92401

> <chembl_pref_name>
IPRONIAZID

$$$$

     RDKit          2D

 16 18  0  0  0  0  0  0  0  0999 V2000
    0.0250    0.5333    0.0000 N   0  0  0  0  0  0  0  0  0  0  0  0
   -1.0208   -0.0542    0.0000 C   0  0  0  0  0  0  0  0  0  0  0  0
    1.0792   -0.0542    0.0000 C   0  0  0  0  0  0  0  0  0  0  0  0
    1.0792   -1.2792    0.0000 C   0  0  0  0  0  0  0  0  0  0  0  0
   -1.0208   -1.2792    0.0000 C   0  0  0  0  0  0  0  0  0  0  0  0
   -2.0708    0.5333    0.0000 C   0  0  0  0  0  0  0  0  0  0  0  0
    2.1292    0.5333    0.0000 C   0  0  0  0  0  0  0  0  0  0  0  0
    0.0250   -1.8875    0.0000 C   0  0  0  0  0  0  0  0  0  0  0  0
    2.1292   -1.8875    0.0000 C   0  0  0  0  0  0  0  0  0  0  0  0
   -2.0708   -1.8875    0.0000 C   0  0  0  0  0  0  0  0  0  0  0  0
   -3.1333   -0.0542    0.0000 C   0  0  0  0  0  0  0  0  0  0  0  0
    3.1917   -0.0542    0.0000 C   0  0  0  0  0  0  0  0  0  0  0  0
   -4.1958    0.5333    0.0000 N   0  0  0  0  0  0  0  0  0  0  0  0
    4.2542    0.5333    0.0000 N   0  0  0  0  0  0  0  0  0  0  0  0
   -3.1333   -1.2792    0.0000 C   0  0  0  0  0  0  0  0  0  0  0  0
    3.1917   -1.2792    0.0000 C   0  0  0  0  0  0  0  0  0  0  0  0
  2  1  2  0
  3  1  1  0
  4  3  1  0
  5  2  1  0
  6  2  1  0
  7  3  2  0
  8  4  1  0
  9  4  2  0
 10  5  1  0
 11  6  2  0
 12  7  1  0
 13 11  1  0
 14 12  1  0
 15 11  1  0
 16 12  2  0
  5  8  2  0
  9 16  1  0
 10 15  2  0
M  END
> <chembl_id>
CHEMBL55400

> <chembl_pref_name>
PROFLAVINE

$$$$

     RDKit          2D

  9  8  0  0  0  0  0  0  0  0999 V2000
   -0.4875   -6.9167    0.0000 C   0  0  0  0  0  0  0  0  0  0  0  0
   -0.8458   -6.3000    0.0000 C   0  0  0  0  0  0  0  0  0  0  0  0
   -0.1333   -7.5292    0.0000 C   0  0  0  0  0  0  0  0  0  0  0  0
    0.4792   -7.8917    0.0000 C   0  0  0  0  0  0  0  0  0  0  0  0
    1.0917   -7.5292    0.0000 C   0  0  0  0  0  0  0  0  0  0  0  0
    1.7042   -7.8917    0.0000 Cl  0  0  0  0  0  0  0  0  0  0  0  0
    0.2167   -6.9167    0.0000 O   0  0  0  0  0  0  0  0  0  0  0  0
   -0.7458   -7.8917    0.0000 C   0  0  0  0  0  0  0  0  0  0  0  0
   -1.3708   -7.5292    0.0000 C   0  0  0  0  0  0  0  0  0  0  0  0
  2  1  3  0
  3  1  1  0
  4  3  1  0
  5  4  2  0
  6  5  1  0
  7  3  1  0
  8  3  1  0
  9  8  1  0
M  END
> <chembl_id>
CHEMBL591

> <chembl_pref_name>
ETHCHLORVYNOL

$$$$

     RDKit          2D

 17 17  0  0  0  0  0  0  0  0999 V2000
    3.2625   -4.5542    0.0000 N   0  0  0  0  0  0  0  0  0  0  0  0
    2.6500   -4.9125    0.0000 C   0  0  0  0  0  0  0  0  0  0  0  0
    3.8750   -4.9083    0.0000 C   0  0  0  0  0  0  0  0  0  0  0  0
    4.4875   -4.5500    0.0000 C   0  0  0  0  0  0  0  0  0  0  0  0
    2.6500   -5.6208    0.0000 C   0  0  0  0  0  0  0  0  0  0  0  0
    5.7125   -4.5458    0.0000 N   0  0  0  0  0  0  0  0  0  0  0  0
    5.1000   -4.9042    0.0000 C   0  0  0  0  0  0  0  0  0  0  0  0
    3.8750   -5.6208    0.0000 C   0  0  0  0  0  0  0  0  0  0  0  0
    6.3292   -4.9000    0.0000 C   0  0  0  0  0  0  0  0  0  0  0  0
    3.2625   -5.9750    0.0000 C   0  0  0  0  0  0  0  0  0  0  0  0
    4.4833   -3.8417    0.0000 O   0  0  0  0  0  0  0  0  0  0  0  0
    2.0375   -5.9750    0.0000 O   0  0  0  0  0  0  0  0  0  0  0  0
    2.0375   -4.5542    0.0000 C   0  0  0  0  0  0  0  0  0  0  0  0
    1.4250   -4.9083    0.0000 O   0  0  0  0  0  0  0  0  0  0  0  0
    5.9667   -5.5125    0.0000 C   0  0  0  0  0  0  0  0  0  0  0  0
    6.6792   -5.5125    0.0000 C   0  0  0  0  0  0  0  0  0  0  0  0
    6.9417   -4.5417    0.0000 C   0  0  0  0  0  0  0  0  0  0  0  0
  2  1  1  0
  3  1  2  0
  4  3  1  0
  5  2  2  0
  6  7  1  0
  7  4  1  0
  8  3  1  0
  9  6  1  0
 10  5  1  0
 11  4  1  0
 12  5  1  0
 13  2  1  0
 14 13  1  0
 15  9  1  0
 16  9  1  0
 17  9  1  0
  8 10  2  0
M  END
> <chembl_id>
CHEMBL1094966

> <chembl_pref_name>
PIRBUTEROL

$$$$

     RDKit          2D

 23 26  0  0  0  0  0  0  0  0999 V2000
    0.2976    0.3835    0.0000 N   0  0  0  0  0  0  0  0  0  0  0  0
   -0.2936   -0.0143    0.0000 C   0  0  0  0  0  0  0  0  0  0  0  0
   -0.5650   -0.9027    0.0000 C   0  0  0  0  0  0  0  0  0  0  0  0
   -1.3852   -0.7823    0.0000 C   0  0  0  0  0  0  0  0  0  0  0  0
   -0.8184   -0.4233    0.0000 C   0  0  0  0  0  0  0  0  0  0  0  0
   -0.5190    0.5011    0.0000 C   0  0  0  0  0  0  0  0  0  0  0  0
   -0.8690    0.5089    0.0000 C   0  0  0  0  0  0  0  0  0  0  0  0
   -1.0365    1.2152    0.0000 C   0  0  0  0  0  0  0  0  0  0  0  0
    0.5287   -0.0809    0.0000 H   0  0  0  0  0  0  0  0  0  0  0  0
    0.2026    0.9010    0.0000 H   0  0  0  0  0  0  0  0  0  0  0  0
    1.1019    0.5673    0.0000 C   0  0  0  0  0  0  0  0  0  0  0  0
   -2.1922   -0.9539    0.0000 O   0  0  0  0  0  0  0  0  0  0  0  0
   -2.7443   -0.3408    0.0000 C   0  0  0  0  0  0  0  0  0  0  0  0
   -3.5512   -0.5123    0.0000 C   0  0  0  0  0  0  0  0  0  0  0  0
   -2.4893    0.4439    0.0000 O   0  0  0  0  0  0  0  0  0  0  0  0
   -3.8868   -1.2660    0.0000 C   0  0  0  0  0  0  0  0  0  0  0  0
   -4.7073   -1.1797    0.0000 N   0  0  0  0  0  0  0  0  0  0  0  0
   -4.8788   -0.3728    0.0000 C   0  0  0  0  0  0  0  0  0  0  0  0
   -4.1643    0.0397    0.0000 C   0  0  0  0  0  0  0  0  0  0  0  0
   -5.5933    0.0397    0.0000 C   0  0  0  0  0  0  0  0  0  0  0  0
   -5.5933    0.8647    0.0000 C   0  0  0  0  0  0  0  0  0  0  0  0
   -4.8788    1.2772    0.0000 C   0  0  0  0  0  0  0  0  0  0  0  0
   -4.1643    0.8647    0.0000 C   0  0  0  0  0  0  0  0  0  0  0  0
  1  2  1  0
  2  3  1  0
  3  4  1  0
  4  5  1  0
  5  6  1  0
  6  1  1  0
  7  8  1  0
  8  6  1  0
  7  2  1  0
  2  9  1  1
  6 10  1  6
  1 11  1  0
  4 12  1  1
 12 13  1  0
 13 14  1  0
 13 15  2  0
 14 16  2  0
 14 19  1  0
 16 17  1  0
 17 18  1  0
 18 20  1  0
 19 18  2  0
 23 19  1  0
 20 21  2  0
 21 22  1  0
 22 23  2  0
M  END
> <chembl_id>
CHEMBL56564

> <chembl_pref_name>
TROPISETRON

$$$$

     RDKit          2D

 19 21  0  0  0  0  0  0  0  0999 V2000
    6.8134   -1.0577    0.0000 C   0  0  0  0  0  0  0  0  0  0  0  0
    6.8134   -1.8827    0.0000 C   0  0  0  0  0  0  0  0  0  0  0  0
    7.5279   -2.2952    0.0000 O   0  0  0  0  0  0  0  0  0  0  0  0
    5.3844   -1.8827    0.0000 C   0  0  0  0  0  0  0  0  0  0  0  0
    4.5998   -2.1376    0.0000 S   0  0  0  0  0  0  0  0  0  0  0  0
    5.3844   -1.0577    0.0000 C   0  0  0  0  0  0  0  0  0  0  0  0
    4.5998   -0.8027    0.0000 N   0  0  0  0  0  0  0  0  0  0  0  0
    6.0989   -0.6452    0.0000 C   0  0  0  0  0  0  0  0  0  0  0  0
    6.0989   -2.2952    0.0000 C   0  0  0  0  0  0  0  0  0  0  0  0
    4.1149   -1.4702    0.0000 C   0  0  0  0  0  0  0  0  0  0  0  0
    3.2899   -1.4702    0.0000 C   0  0  0  0  0  0  0  0  0  0  0  0
    2.8774   -0.7557    0.0000 C   0  0  0  0  0  0  0  0  0  0  0  0
    2.0524   -0.7557    0.0000 C   0  0  0  0  0  0  0  0  0  0  0  0
    1.6399   -1.4702    0.0000 C   0  0  0  0  0  0  0  0  0  0  0  0
    0.8149   -1.4702    0.0000 N   0  0  0  0  0  0  0  0  0  0  0  0
    2.0524   -2.1846    0.0000 C   0  0  0  0  0  0  0  0  0  0  0  0
    2.8774   -2.1846    0.0000 C   0  0  0  0  0  0  0  0  0  0  0  0
    0.4024   -2.1846    0.0000 C   0  0  0  0  0  0  0  0  0  0  0  0
    1.6399   -0.0412    0.0000 F   0  0  0  0  0  0  0  0  0  0  0  0
  1  2  2  0
  1  8  1  0
  2  3  1  0
  2  9  1  0
  4  5  1  0
  6  7  1  0
  6  4  1  0
  7 10  2  0
  8  6  2  0
  9  4  2  0
 10 11  1  0
 10  5  1  0
 11 17  2  0
 12 11  1  0
 12 13  2  0
 14 13  1  0
 14 15  1  0
 16 14  2  0
 17 16  1  0
 18 15  1  0
 13 19  1  0
M  ISO  1  19  18
M  END
> <chembl_id>
CHEMBL2042122

> <chembl_pref_name>
FLUTEMETAMOL F 18

$$$$

     RDKit          2D

 15 16  0  0  0  0  0  0  0  0999 V2000
    4.5667   -4.8042    0.0000 C   0  0  0  0  0  0  0  0  0  0  0  0
    3.3667   -4.8667    0.0000 C   0  0  0  0  0  0  0  0  0  0  0  0
    3.9542   -4.4542    0.0000 N   0  0  0  0  0  0  0  0  0  0  0  0
    5.1875   -4.4542    0.0000 C   0  0  0  0  0  0  0  0  0  0  0  0
    4.5667   -5.5167    0.0000 C   0  0  0  0  0  0  0  0  0  0  0  0
    5.1875   -5.8917    0.0000 C   0  0  0  0  0  0  0  0  0  0  0  0
    5.7917   -4.8042    0.0000 C   0  0  0  0  0  0  0  0  0  0  0  0
    2.7875   -4.4875    0.0000 N   0  0  0  0  0  0  0  0  0  0  0  0
    3.1542   -5.5667    0.0000 N   0  0  0  0  0  0  0  0  0  0  0  0
    5.7917   -5.5167    0.0000 C   0  0  0  0  0  0  0  0  0  0  0  0
    5.1875   -3.7542    0.0000 Cl  0  0  0  0  0  0  0  0  0  0  0  0
    3.9542   -5.8917    0.0000 Cl  0  0  0  0  0  0  0  0  0  0  0  0
    6.4167   -5.8917    0.0000 N   0  0  0  0  0  0  0  0  0  0  0  0
    2.2167   -4.8667    0.0000 C   0  0  0  0  0  0  0  0  0  0  0  0
    2.4292   -5.5667    0.0000 C   0  0  0  0  0  0  0  0  0  0  0  0
  2  3  2  0
  3  1  1  0
  4  1  2  0
  5  1  1  0
  6  5  2  0
  7  4  1  0
  8  2  1  0
  9  2  1  0
 10  6  1  0
 11  4  1  0
 12  5  1  0
 13 10  1  0
 14  8  1  0
 15  9  1  0
 10  7  2  0
 15 14  1  0
M  END
> <chembl_id>
CHEMBL647

> <chembl_pref_name>
APRACLONIDINE

$$$$

     RDKit          2D

  2  0  0  0  0  0  0  0  0  0999 V2000
   -0.5708   -1.1542    0.0000 Na  0  0  0  0  0 15  0  0  0  0  0  0
    0.5875   -1.1542    0.0000 I   0  0  0  0  0  0  0  0  0  0  0  0
M  CHG  2   1   1   2  -1
M  ISO  1   2 131
M  END
> <chembl_id>
CHEMBL1201084

> <chembl_pref_name>
SODIUM IODIDE I 131

$$$$

     RDKit          2D

 12 12  0  0  0  0  0  0  0  0999 V2000
    4.6667   -5.0833    0.0000 C   0  0  0  0  0  0  0  0  0  0  0  0
    5.2792   -4.7250    0.0000 N   0  0  0  0  0  0  0  0  0  0  0  0
    4.0542   -4.7292    0.0000 C   0  0  0  0  0  0  0  0  0  0  0  0
    3.4417   -5.0875    0.0000 C   0  0  0  0  0  0  0  0  0  0  0  0
    4.3042   -5.6917    0.0000 C   0  0  0  0  0  0  0  0  0  0  0  0
    5.0167   -5.6917    0.0000 C   0  0  0  0  0  0  0  0  0  0  0  0
    5.8958   -5.0792    0.0000 C   0  0  0  0  0  0  0  0  0  0  0  0
    2.8292   -4.7333    0.0000 C   0  0  0  0  0  0  0  0  0  0  0  0
    3.4417   -5.8000    0.0000 C   0  0  0  0  0  0  0  0  0  0  0  0
    2.2167   -5.0875    0.0000 C   0  0  0  0  0  0  0  0  0  0  0  0
    2.8292   -6.1542    0.0000 C   0  0  0  0  0  0  0  0  0  0  0  0
    2.2167   -5.8000    0.0000 C   0  0  0  0  0  0  0  0  0  0  0  0
  2  1  1  0
  3  1  1  0
  4  3  1  0
  5  1  1  0
  6  1  1  0
  7  2  1  0
  8  4  2  0
  9  4  1  0
 10  8  1  0
 11  9  2  0
 12 10  2  0
 11 12  1  0
M  END
> <chembl_id>
CHEMBL1201234

> <chembl_pref_name>
MEPHENTERMINE

$$$$

     RDKit          2D

 20 20  0  0  0  0  0  0  0  0999 V2000
    9.9884   -4.8321    0.0000 C   0  0  0  0  0  0  0  0  0  0  0  0
   10.7029   -5.2446    0.0000 C   0  0  0  0  0  0  0  0  0  0  0  0
   10.7029   -6.0696    0.0000 O   0  0  0  0  0  0  0  0  0  0  0  0
   11.4173   -4.8321    0.0000 C   0  0  0  0  0  0  0  0  0  0  0  0
   12.1318   -5.2446    0.0000 O   0  0  0  0  0  0  0  0  0  0  0  0
   11.4173   -4.0071    0.0000 O   0  0  0  0  0  0  0  0  0  0  0  0
    4.7707   -5.4522    0.0000 C   0  0  0  0  0  0  0  0  0  0  0  0
    6.1917   -5.4522    0.0000 C   0  0  0  0  0  0  0  0  0  0  0  0
    4.7707   -4.6257    0.0000 C   0  0  0  0  0  0  0  0  0  0  0  0
    5.4812   -5.8631    0.0000 C   0  0  0  0  0  0  0  0  0  0  0  0
    5.4812   -4.2100    0.0000 N   0  0  0  0  0  0  0  0  0  0  0  0
    6.1917   -4.6257    0.0000 C   0  0  0  0  0  0  0  0  0  0  0  0
    4.0505   -4.2100    0.0000 O   0  0  0  0  0  0  0  0  0  0  0  0
    6.9071   -5.8631    0.0000 C   0  0  0  0  0  0  0  0  0  0  0  0
    8.3282   -5.8631    0.0000 C   0  0  0  0  0  0  0  0  0  0  0  0
    4.0505   -5.8631    0.0000 N   0  0  0  0  0  0  0  0  0  0  0  0
    7.6177   -5.4571    0.0000 C   0  0  0  0  0  0  0  0  0  0  0  0
    8.3378   -6.6896    0.0000 N   0  0  0  0  0  0  0  0  0  0  0  0
    6.9071   -6.6896    0.0000 C   0  0  0  0  0  0  0  0  0  0  0  0
    7.6177   -7.1053    0.0000 C   0  0  0  0  0  0  0  0  0  0  0  0
  1  2  1  0
  2  3  1  0
  2  4  1  0
  4  5  1  0
  4  6  2  0
  8 10  1  0
  9  7  1  0
 10  7  2  0
 11  9  1  0
 12  8  2  0
 13  9  2  0
 14  8  1  0
 15 17  2  0
 16  7  1  0
 17 14  1  0
 18 20  2  0
 19 14  2  0
 20 19  1  0
 11 12  1  0
 15 18  1  0
M  END
> <chembl_id>
CHEMBL2096642

> <chembl_pref_name>
INAMRINONE LACTATE

$$$$

     RDKit          2D

  4  3  0  0  0  0  0  0  0  0999 V2000
   -0.6777    0.0000    0.0000 Se  0  0  0  0  0  4  0  0  0  0  0  0
    0.1473    0.0000    0.0000 O   0  0  0  0  0  0  0  0  0  0  0  0
   -1.0902    0.7145    0.0000 O   0  0  0  0  0  0  0  0  0  0  0  0
   -1.0902   -0.7145    0.0000 O   0  0  0  0  0  0  0  0  0  0  0  0
  1  2  1  0
  1  3  2  0
  1  4  1  0
M  END
> <chembl_id>
CHEMBL2009089

> <chembl_pref_name>
SELENIOUS ACID

$$$$

     RDKit          2D

  2  1  0  0  0  0  0  0  0  0999 V2000
    0.5250   -0.3750    0.0000 O   0  0  0  0  0  0  0  0  0  0  0  0
    1.2292   -0.3750    0.0000 O   0  0  0  0  0  0  0  0  0  0  0  0
  2  1  2  0
M  END
> <chembl_id>
CHEMBL1234886

> <chembl_pref_name>
OXYGEN

$$$$

     RDKit          2D

 19 19  0  0  0  0  0  0  0  0999 V2000
    3.3542  -16.2667    0.0000 Cl  0  0  0  0  0  0  0  0  0  0  0  0
   -1.0347  -17.9667    0.0000 C   0  0  0  0  0  0  0  0  0  0  0  0
   -1.0359  -18.7940    0.0000 C   0  0  0  0  0  0  0  0  0  0  0  0
   -0.3211  -19.2069    0.0000 N   0  0  0  0  0  0  0  0  0  0  0  0
    0.3954  -18.7936    0.0000 C   0  0  0  0  0  0  0  0  0  0  0  0
    0.3925  -17.9630    0.0000 C   0  0  0  0  0  0  0  0  0  0  0  0
   -0.3229  -17.5539    0.0000 C   0  0  0  0  0  0  0  0  0  0  0  0
    1.1105  -19.2049    0.0000 N   0  0  0  0  0  0  0  0  0  0  0  0
    1.1118  -20.0297    0.0000 C   0  0  0  0  0  0  0  0  0  0  0  0
    1.8243  -18.7913    0.0000 C   0  0  0  0  0  0  0  0  0  0  0  0
    2.5394  -19.2027    0.0000 C   0  0  0  0  0  0  0  0  0  0  0  0
    3.2532  -18.7891    0.0000 N   0  0  0  0  0  0  0  0  0  0  0  0
    3.9684  -19.2004    0.0000 C   0  0  0  0  0  0  0  0  0  0  0  0
    3.2520  -17.9641    0.0000 C   0  0  0  0  0  0  0  0  0  0  0  0
    1.7825  -20.5104    0.0000 C   0  0  0  0  0  0  0  0  0  0  0  0
    1.7825  -21.3350    0.0000 C   0  0  0  0  0  0  0  0  0  0  0  0
    2.5697  -21.5849    0.0000 C   0  0  0  0  0  0  0  0  0  0  0  0
    3.0495  -20.9124    0.0000 C   0  0  0  0  0  0  0  0  0  0  0  0
    2.5572  -20.2492    0.0000 S   0  0  0  0  0  0  0  0  0  0  0  0
  8 10  1  0
  5  8  1  0
 10 11  1  0
  4  5  2  0
 11 12  1  0
  8  9  1  0
 12 13  1  0
 12 14  1  0
  9 15  1  0
 16 17  1  0
  5  6  1  0
  3  4  1  0
  6  7  2  0
 15 16  2  0
 17 18  2  0
 18 19  1  0
 19 15  1  0
  7  2  1  0
  2  3  2  0
M  END
> <chembl_id>
CHEMBL1255739

> <chembl_pref_name>
METHAPYRILENE HYDROCHLORIDE

$$$$

     RDKit          2D

 13 13  0  0  0  0  0  0  0  0999 V2000
    1.0917   -0.6000    0.0000 C   0  0  0  0  0  0  0  0  0  0  0  0
   -0.0583   -1.4375    0.0000 C   0  0  0  0  0  0  0  0  0  0  0  0
    2.3917   -1.2042    0.0000 C   0  0  0  0  0  0  0  0  0  0  0  0
   -2.5333   -1.6667    0.0000 N   0  0  0  0  0  0  0  0  0  0  0  0
    2.5250   -2.6375    0.0000 O   0  0  0  0  0  0  0  0  0  0  0  0
   -1.3708   -0.8292    0.0000 C   0  0  0  0  0  0  0  0  0  0  0  0
    0.9542    0.8000    0.0000 C   0  0  0  0  0  0  0  0  0  0  0  0
    3.5667   -0.3667    0.0000 C   0  0  0  0  0  0  0  0  0  0  0  0
   -3.8458   -1.0667    0.0000 C   0  0  0  0  0  0  0  0  0  0  0  0
    3.8375   -3.2292    0.0000 C   0  0  0  0  0  0  0  0  0  0  0  0
   -1.5000    0.5833    0.0000 C   0  0  0  0  0  0  0  0  0  0  0  0
    2.1250    1.6458    0.0000 C   0  0  0  0  0  0  0  0  0  0  0  0
    3.4375    1.0333    0.0000 C   0  0  0  0  0  0  0  0  0  0  0  0
  2  1  1  0
  3  1  1  0
  4  6  1  0
  5  3  1  0
  6  2  1  0
  7  1  2  0
  8  3  2  0
  9  4  1  0
 10  5  1  0
 11  6  1  0
 12  7  1  0
 13 12  2  0
  8 13  1  0
M  END
> <chembl_id>
CHEMBL2010507

> <chembl_pref_name>
METHOXYPHENAMINE

$$$$

     RDKit          2D

 10  9  0  0  0  0  0  0  0  0999 V2000
    4.1500   -4.9667    0.0000 N   0  0  0  0  0  0  0  0  0  0  0  0
    5.9917   -4.5917    0.0000 N   0  0  0  0  0  0  0  0  0  0  0  0
    7.8625   -4.9042    0.0000 N   0  0  0  0  0  0  0  0  0  0  0  0
    2.2792   -4.6542    0.0000 N   0  0  0  0  0  0  0  0  0  0  0  0
    5.3792   -4.9500    0.0000 C   0  0  0  0  0  0  0  0  0  0  0  0
    4.7625   -4.6167    0.0000 C   0  0  0  0  0  0  0  0  0  0  0  0
    6.6167   -4.9292    0.0000 C   0  0  0  0  0  0  0  0  0  0  0  0
    3.5250   -4.6417    0.0000 C   0  0  0  0  0  0  0  0  0  0  0  0
    7.2375   -4.5667    0.0000 C   0  0  0  0  0  0  0  0  0  0  0  0
    2.9125   -4.9917    0.0000 C   0  0  0  0  0  0  0  0  0  0  0  0
  2  5  1  0
  3  9  1  0
  4 10  1  0
  5  6  1  0
  6  1  1  0
  7  2  1  0
  8  1  1  0
  9  7  1  0
 10  8  1  0
M  END
> <chembl_id>
CHEMBL609

> <chembl_pref_name>
TRIENTINE

$$$$

     RDKit          2D

 17 17  0  0  0  0  0  0  0  0999 V2000
    0.0625    1.0833    0.0000 C   0  0  0  0  0  0  0  0  0  0  0  0
   -0.5833    2.2458    0.0000 C   0  0  0  0  0  0  0  0  0  0  0  0
    2.0917   -0.0792    0.0000 C   0  0  0  0  0  0  0  0  0  0  0  0
   -1.9333    2.2458    0.0000 C   0  0  0  0  0  0  0  0  0  0  0  0
    1.4042   -1.2417    0.0000 N   0  0  0  0  0  0  0  0  0  0  0  0
    1.4042    1.0833    0.0000 C   0  0  0  0  0  0  0  0  0  0  0  0
   -2.5833    1.0833    0.0000 C   0  0  0  0  0  0  0  0  0  0  0  0
   -0.5833   -0.0792    0.0000 C   0  0  0  0  0  0  0  0  0  0  0  0
   -1.9333   -0.0792    0.0000 C   0  0  0  0  0  0  0  0  0  0  0  0
   -2.5833    3.4375    0.0000 O   0  0  0  0  0  0  0  0  0  0  0  0
    2.0917    2.2458    0.0000 O   0  0  0  0  0  0  0  0  0  0  0  0
   -3.9250    1.0833    0.0000 O   0  0  0  0  0  0  0  0  0  0  0  0
    2.0667   -2.4250    0.0000 C   0  0  0  0  0  0  0  0  0  0  0  0
    3.4042   -0.0792    0.0000 C   0  0  0  0  0  0  0  0  0  0  0  0
    1.3792   -3.5917    0.0000 C   0  0  0  0  0  0  0  0  0  0  0  0
    3.4250   -2.4375    0.0000 C   0  0  0  0  0  0  0  0  0  0  0  0
    4.0917   -1.2417    0.0000 C   0  0  0  0  0  0  0  0  0  0  0  0
  2  1  2  0
  3  6  1  0
  4  2  1  0
  5  3  1  0
  6  1  1  0
  7  9  1  0
  8  1  1  0
  9  8  2  0
 10  4  1  0
 11  6  1  0
 12  7  1  0
 13  5  1  0
 14  3  1  0
 15 13  1  0
 16 13  1  0
 17 14  1  0
  4  7  2  0
M  END
> <chembl_id>
CHEMBL1201213

> <chembl_pref_name>
ISOETHARINE

$$$$

     RDKit          2D

 11 10  0  0  0  0  0  0  0  0999 V2000
    8.3000   -7.0625    0.0000 Na  0  0  0  0  0 15  0  0  0  0  0  0
    7.0917   -6.6542    0.0000 C   0  0  0  0  0  0  0  0  0  0  0  0
    7.6917   -7.0167    0.0000 O   0  0  0  0  0  0  0  0  0  0  0  0
    7.0917   -5.9500    0.0000 O   0  0  0  0  0  0  0  0  0  0  0  0
    6.4625   -7.0042    0.0000 C   0  0  0  0  0  0  0  0  0  0  0  0
    5.8542   -6.6417    0.0000 C   0  0  0  0  0  0  0  0  0  0  0  0
    5.2292   -6.9917    0.0000 C   0  0  0  0  0  0  0  0  0  0  0  0
    5.8667   -5.9417    0.0000 C   0  0  0  0  0  0  0  0  0  0  0  0
    5.2542   -5.5750    0.0000 C   0  0  0  0  0  0  0  0  0  0  0  0
    4.6250   -6.6250    0.0000 C   0  0  0  0  0  0  0  0  0  0  0  0
    4.6250   -5.9250    0.0000 C   0  0  0  0  0  0  0  0  0  0  0  0
  3  2  1  0
  4  2  2  0
  5  2  1  0
  6  5  1  0
  7  6  2  0
  8  6  1  0
  9  8  2  0
 10  7  1  0
 11 10  2  0
 11  9  1  0
M  CHG  2   1   1   3  -1
M  END
> <chembl_id>
CHEMBL1200358

> <chembl_pref_name>
SODIUM PHENYLACETATE

$$$$

     RDKit          2D

 20 22  0  0  0  0  0  0  0  0999 V2000
    5.8292   -3.5000    0.0000 Cl  0  0  0  0  0  0  0  0  0  0  0  0
    5.9000   -0.9542    0.0000 N   0  0  0  0  0  0  0  0  0  0  0  0
    6.6042   -1.1042    0.0000 C   0  0  0  0  0  0  0  0  0  0  0  0
    5.8250   -0.2417    0.0000 C   0  0  0  0  0  0  0  0  0  0  0  0
    6.4833    0.0542    0.0000 N   0  0  0  0  0  0  0  0  0  0  0  0
    5.3458   -1.4083    0.0000 C   0  0  0  0  0  0  0  0  0  0  0  0
    6.9208   -1.7500    0.0000 C   0  0  0  0  0  0  0  0  0  0  0  0
    6.9667   -0.4833    0.0000 C   0  0  0  0  0  0  0  0  0  0  0  0
    5.3458   -2.1208    0.0000 C   0  0  0  0  0  0  0  0  0  0  0  0
    6.6125   -2.4000    0.0000 C   0  0  0  0  0  0  0  0  0  0  0  0
    5.9125   -2.5667    0.0000 C   0  0  0  0  0  0  0  0  0  0  0  0
    5.2042    0.1125    0.0000 N   0  0  0  0  0  0  0  0  0  0  0  0
    4.7333   -1.0542    0.0000 C   0  0  0  0  0  0  0  0  0  0  0  0
    7.6292   -1.6875    0.0000 C   0  0  0  0  0  0  0  0  0  0  0  0
    4.7333   -2.4750    0.0000 C   0  0  0  0  0  0  0  0  0  0  0  0
    7.0208   -2.9875    0.0000 C   0  0  0  0  0  0  0  0  0  0  0  0
    4.1208   -1.4125    0.0000 C   0  0  0  0  0  0  0  0  0  0  0  0
    8.0417   -2.2750    0.0000 C   0  0  0  0  0  0  0  0  0  0  0  0
    7.7375   -2.9292    0.0000 C   0  0  0  0  0  0  0  0  0  0  0  0
    4.1208   -2.1208    0.0000 C   0  0  0  0  0  0  0  0  0  0  0  0
  3  2  1  0
  4  2  1  0
  5  4  2  0
  6  2  1  0
  7  3  1  0
  8  3  1  0
  9  6  1  0
 10  7  2  0
 11  9  1  0
 12  4  1  0
 13  6  2  0
 14  7  1  0
 15  9  2  0
 16 10  1  0
 17 13  1  0
 18 14  2  0
 19 18  1  0
 20 15  1  0
  5  8  1  0
 10 11  1  0
 20 17  2  0
 19 16  2  0
M  END
> <chembl_id>
CHEMBL1200491

> <chembl_pref_name>
EPINASTINE HYDROCHLORIDE

$$$$

     RDKit          2D

 18 19  0  0  0  0  0  0  0  0999 V2000
    4.1500   -4.6417    0.0000 C   0  0  0  0  0  0  0  0  0  0  0  0
    5.9875   -5.0000    0.0000 C   0  0  0  0  0  0  0  0  0  0  0  0
    5.3750   -4.6500    0.0000 O   0  0  0  0  0  0  0  0  0  0  0  0
    4.7542   -4.9917    0.0000 O   0  0  0  0  0  0  0  0  0  0  0  0
    4.1500   -3.9292    0.0000 O   0  0  0  0  0  0  0  0  0  0  0  0
    5.9792   -5.7125    0.0000 O   0  0  0  0  0  0  0  0  0  0  0  0
    6.6000   -4.6417    0.0000 C   0  0  0  0  0  0  0  0  0  0  0  0
    3.5292   -5.0042    0.0000 C   0  0  0  0  0  0  0  0  0  0  0  0
    2.9167   -4.6417    0.0000 C   0  0  0  0  0  0  0  0  0  0  0  0
    3.5167   -5.7042    0.0000 C   0  0  0  0  0  0  0  0  0  0  0  0
    7.2167   -5.0000    0.0000 C   0  0  0  0  0  0  0  0  0  0  0  0
    6.6125   -3.9417    0.0000 C   0  0  0  0  0  0  0  0  0  0  0  0
    2.2917   -5.0000    0.0000 C   0  0  0  0  0  0  0  0  0  0  0  0
    2.9042   -6.0542    0.0000 C   0  0  0  0  0  0  0  0  0  0  0  0
    7.8375   -4.6417    0.0000 C   0  0  0  0  0  0  0  0  0  0  0  0
    7.2250   -3.5917    0.0000 C   0  0  0  0  0  0  0  0  0  0  0  0
    2.2917   -5.7000    0.0000 C   0  0  0  0  0  0  0  0  0  0  0  0
    7.8417   -3.9417    0.0000 C   0  0  0  0  0  0  0  0  0  0  0  0
  2  3  1  0
  3  4  1  0
  4  1  1  0
  5  1  2  0
  6  2  2  0
  7  2  1  0
  8  1  1  0
  9  8  2  0
 10  8  1  0
 11  7  2  0
 12  7  1  0
 13  9  1  0
 14 10  2  0
 15 11  1  0
 16 12  2  0
 17 14  1  0
 18 16  1  0
 17 13  2  0
 18 15  2  0
M  END
> <chembl_id>
CHEMBL1200370

> <chembl_pref_name>
BENZOYL PEROXIDE

$$$$

     RDKit          2D

 19 20  0  0  0  0  0  0  0  0999 V2000
    0.6875   -0.9250    0.0000 S   0  0  0  0  0  0  0  0  0  0  0  0
    1.9292   -0.9250    0.0000 N   0  0  0  0  0  0  0  0  0  0  0  0
    2.5292    0.1208    0.0000 C   0  0  0  0  0  0  0  0  0  0  0  0
    1.9292    1.1500    0.0000 C   0  0  0  0  0  0  0  0  0  0  0  0
   -0.5500   -0.9250    0.0000 C   0  0  0  0  0  0  0  0  0  0  0  0
    3.7542    0.1208    0.0000 N   0  0  0  0  0  0  0  0  0  0  0  0
    0.6875    0.2833    0.0000 O   0  0  0  0  0  0  0  0  0  0  0  0
    0.6875   -2.1292    0.0000 O   0  0  0  0  0  0  0  0  0  0  0  0
    2.5292    2.2208    0.0000 N   0  0  0  0  0  0  0  0  0  0  0  0
   -1.1750   -1.9542    0.0000 C   0  0  0  0  0  0  0  0  0  0  0  0
   -1.1750    0.1208    0.0000 C   0  0  0  0  0  0  0  0  0  0  0  0
   -2.9708   -0.9250    0.0000 C   0  0  0  0  0  0  0  0  0  0  0  0
    0.7375    1.1333    0.0000 O   0  0  0  0  0  0  0  0  0  0  0  0
   -4.1958   -0.9250    0.0000 N   0  0  0  0  0  0  0  0  0  0  0  0
   -2.3625   -1.9542    0.0000 C   0  0  0  0  0  0  0  0  0  0  0  0
   -2.3625    0.1208    0.0000 C   0  0  0  0  0  0  0  0  0  0  0  0
    4.3417    1.1500    0.0000 C   0  0  0  0  0  0  0  0  0  0  0  0
    3.7167    2.1958    0.0000 C   0  0  0  0  0  0  0  0  0  0  0  0
    0.1167    2.1250    0.0000 C   0  0  0  0  0  0  0  0  0  0  0  0
  2  1  1  0
  3  2  1  0
  4  3  1  0
  5  1  1  0
  6  3  2  0
  7  1  2  0
  8  1  2  0
  9  4  2  0
 10  5  2  0
 11  5  1  0
 12 16  1  0
 13  4  1  0
 14 12  1  0
 15 10  1  0
 16 11  2  0
 17  6  1  0
 18 17  2  0
 19 13  1  0
 15 12  2  0
  9 18  1  0
M  END
> <chembl_id>
CHEMBL1525826

> <chembl_pref_name>
SULFALENE

$$$$

     RDKit          2D

 19 20  0  0  1  0  0  0  0  0999 V2000
    1.4750   -0.2667    0.0000 N   0  0  0  0  0  0  0  0  0  0  0  0
    3.3167   -1.3292    0.0000 N   0  0  0  0  0  0  0  0  0  0  0  0
   -3.2833    1.4000    0.0000 N   0  0  0  0  0  0  0  0  0  0  0  0
   -1.4208    0.3708    0.0000 N   0  0  0  0  0  0  0  0  0  0  0  0
    3.3167   -0.2542    0.0000 C   0  0  0  0  0  0  0  0  0  0  0  0
    2.4000   -1.8542    0.0000 C   0  0  0  0  0  0  0  0  0  0  0  0
   -3.2833    0.3375    0.0000 C   0  0  0  0  0  0  0  0  0  0  0  0
   -2.3708    1.9458    0.0000 C   0  0  0  0  0  0  0  0  0  0  0  0
    2.4000    0.2833    0.0000 C   0  0  0  0  0  0  0  0  0  0  0  0
    1.4792   -1.3292    0.0000 C   0  0  0  0  0  0  0  0  0  0  0  0
    0.5042    0.4708    0.0000 C   0  0  0  0  0  0  0  0  0  0  0  0
   -0.4708   -0.1750    0.0000 C   0  0  0  0  0  0  0  0  0  0  0  0
   -1.4583    1.4333    0.0000 C   0  0  0  0  0  0  0  0  0  0  0  0
   -2.3458   -0.1875    0.0000 C   0  0  0  0  0  0  0  0  0  0  0  0
    2.4000   -2.9292    0.0000 O   0  0  0  0  0  0  0  0  0  0  0  0
    4.2625    0.3000    0.0000 O   0  0  0  0  0  0  0  0  0  0  0  0
   -4.2083   -0.2292    0.0000 O   0  0  0  0  0  0  0  0  0  0  0  0
   -2.4083    3.0083    0.0000 O   0  0  0  0  0  0  0  0  0  0  0  0
    0.5375    1.5000    0.0000 C   0  0  0  0  0  0  0  0  0  0  0  0
  2  6  1  0
  3  7  1  0
  4 12  1  0
  5  9  1  0
  6 10  1  0
  7 14  1  0
  8 13  1  0
  9  1  1  0
 10  1  1  0
 11  1  1  0
 12 11  1  0
 13  4  1  0
 14  4  1  0
 15  6  2  0
 16  5  2  0
 17  7  2  0
 18  8  2  0
 11 19  1  6
  5  2  1  0
  8  3  1  0
M  END
> <chembl_id>
CHEMBL1738

> <chembl_pref_name>
DEXRAZOXANE

$$$$

     RDKit          2D

 17 17  0  0  0  0  0  0  0  0999 V2000
    0.2500   -2.3667    0.0000 C   0  0  0  0  0  0  0  0  0  0  0  0
    3.3417   -2.6792    0.0000 O   0  0  0  0  0  0  0  0  0  0  0  0
    0.2292   -1.6542    0.0000 O   0  0  0  0  0  0  0  0  0  0  0  0
    3.9667   -2.3167    0.0000 C   0  0  0  0  0  0  0  0  0  0  0  0
    0.8750   -2.7125    0.0000 O   0  0  0  0  0  0  0  0  0  0  0  0
    4.5792   -2.6667    0.0000 C   0  0  0  0  0  0  0  0  0  0  0  0
   -0.3583   -2.7375    0.0000 N   0  0  0  0  0  0  0  0  0  0  0  0
    2.1125   -2.6917    0.0000 C   0  0  0  0  0  0  0  0  0  0  0  0
    2.7167   -2.3292    0.0000 C   0  0  0  0  0  0  0  0  0  0  0  0
    1.4875   -2.3500    0.0000 C   0  0  0  0  0  0  0  0  0  0  0  0
    4.5792   -3.3792    0.0000 O   0  0  0  0  0  0  0  0  0  0  0  0
    2.1292   -3.4167    0.0000 O   0  0  0  0  0  0  0  0  0  0  0  0
    3.9667   -1.6042    0.0000 C   0  0  0  0  0  0  0  0  0  0  0  0
    5.1917   -2.3167    0.0000 C   0  0  0  0  0  0  0  0  0  0  0  0
    3.9667   -3.7292    0.0000 C   0  0  0  0  0  0  0  0  0  0  0  0
    4.5792   -1.2500    0.0000 C   0  0  0  0  0  0  0  0  0  0  0  0
    5.1917   -1.6000    0.0000 C   0  0  0  0  0  0  0  0  0  0  0  0
  2  9  1  0
  3  1  2  0
  4  2  1  0
  5  1  1  0
  6  4  2  0
  7  1  1  0
  8 10  1  0
  9  8  1  0
 10  5  1  0
 11  6  1  0
 12  8  1  0
 13  4  1  0
 14  6  1  0
 15 11  1  0
 16 13  2  0
 17 16  1  0
 17 14  2  0
M  END
> <chembl_id>
CHEMBL1201117

> <chembl_pref_name>
METHOCARBAMOL

$$$$

     RDKit          2D

 15 15  0  0  0  0  0  0  0  0999 V2000
    5.3875   -5.6250    0.0000 C   0  0  0  0  0  0  0  0  0  0  0  0
    4.7667   -5.9792    0.0000 C   0  0  0  0  0  0  0  0  0  0  0  0
    4.1542   -5.6250    0.0000 N   0  0  0  0  0  0  0  0  0  0  0  0
    5.3875   -4.9042    0.0000 O   0  0  0  0  0  0  0  0  0  0  0  0
    6.0042   -5.9792    0.0000 C   0  0  0  0  0  0  0  0  0  0  0  0
    4.7750   -6.6917    0.0000 C   0  0  0  0  0  0  0  0  0  0  0  0
    4.1500   -4.9042    0.0000 C   0  0  0  0  0  0  0  0  0  0  0  0
    3.5417   -5.9792    0.0000 C   0  0  0  0  0  0  0  0  0  0  0  0
    6.6167   -5.6292    0.0000 C   0  0  0  0  0  0  0  0  0  0  0  0
    6.0042   -6.6917    0.0000 C   0  0  0  0  0  0  0  0  0  0  0  0
    3.5375   -4.5500    0.0000 C   0  0  0  0  0  0  0  0  0  0  0  0
    2.9250   -5.6250    0.0000 C   0  0  0  0  0  0  0  0  0  0  0  0
    6.6167   -7.0417    0.0000 C   0  0  0  0  0  0  0  0  0  0  0  0
    7.2375   -5.9792    0.0000 C   0  0  0  0  0  0  0  0  0  0  0  0
    7.2375   -6.6917    0.0000 C   0  0  0  0  0  0  0  0  0  0  0  0
  2  1  1  0
  3  2  1  0
  4  1  2  0
  5  1  1  0
  6  2  1  0
  7  3  1  0
  8  3  1  0
  9  5  2  0
 10  5  1  0
 11  7  1  0
 12  8  1  0
 13 10  2  0
 14  9  1  0
 15 14  2  0
 15 13  1  0
M  END
> <chembl_id>
CHEMBL1194666

> <chembl_pref_name>
DIETHYLPROPION

$$$$

     RDKit          2D

 11  9  0  0  0  0  0  0  0  0999 V2000
    3.7667   -2.2250    0.0000 Na  0  0  0  0  0 15  0  0  0  0  0  0
    2.4042   -1.8667    0.0000 P   0  0  0  0  0  0  0  0  0  0  0  0
    0.5542   -2.2167    0.0000 C   0  0  0  0  0  0  0  0  0  0  0  0
    1.1750   -1.8667    0.0000 C   0  0  0  0  0  0  0  0  0  0  0  0
    1.7875   -2.2167    0.0000 O   0  0  0  0  0  0  0  0  0  0  0  0
    3.0167   -2.2167    0.0000 O   0  0  0  0  0  0  0  0  0  0  0  0
    2.7542   -1.2417    0.0000 O   0  0  0  0  0  0  0  0  0  0  0  0
    2.0417   -1.2417    0.0000 O   0  0  0  0  0  0  0  0  0  0  0  0
    0.9042   -2.8375    0.0000 Cl  0  0  0  0  0  0  0  0  0  0  0  0
    0.2000   -2.8375    0.0000 Cl  0  0  0  0  0  0  0  0  0  0  0  0
   -0.0583   -1.8667    0.0000 Cl  0  0  0  0  0  0  0  0  0  0  0  0
  3  4  1  0
  4  5  1  0
  5  2  1  0
  6  2  1  0
  7  2  2  0
  8  2  1  0
  9  3  1  0
 10  3  1  0
 11  3  1  0
M  CHG  2   1   1   6  -1
M  END
> <chembl_id>
CHEMBL1200789

> <chembl_pref_name>
TRICLOFOS SODIUM

$$$$

     RDKit          2D

 13 12  0  0  0  0  0  0  0  0999 V2000
    1.6245   -2.0041    0.0000 Cl  0  0  0  0  0  0  0  0  0  0  0  0
   -0.1559   -0.1895    0.0000 C   0  0  0  0  0  0  0  0  0  0  0  0
    0.6141    0.0695    0.0000 C   0  0  0  0  0  0  0  0  0  0  0  0
   -0.7772    0.3454    0.0000 C   0  0  0  0  0  0  0  0  0  0  0  0
   -1.5663    0.0792    0.0000 N   0  0  0  0  0  0  0  0  0  0  0  0
   -0.3166   -1.0027    0.0000 O   0  0  0  0  0  0  0  0  0  0  0  0
    1.2401   -0.4677    0.0000 C   0  0  0  0  0  0  0  0  0  0  0  0
    0.7724    0.8755    0.0000 C   0  0  0  0  0  0  0  0  0  0  0  0
   -2.1852    0.6236    0.0000 C   0  0  0  0  0  0  0  0  0  0  0  0
   -0.6164    1.1633    0.0000 C   0  0  0  0  0  0  0  0  0  0  0  0
    2.0221   -0.1967    0.0000 C   0  0  0  0  0  0  0  0  0  0  0  0
    1.5615    1.1490    0.0000 C   0  0  0  0  0  0  0  0  0  0  0  0
    2.1828    0.6021    0.0000 C   0  0  0  0  0  0  0  0  0  0  0  0
  3  2  1  0
  4  2  1  0
  4  5  1  1
  2  6  1  1
  7  3  2  0
  8  3  1  0
  9  5  1  0
 10  4  1  0
 11  7  1  0
 12  8  2  0
 13 12  1  0
 11 13  2  0
M  END
> <chembl_id>
CHEMBL2146102

> <chembl_pref_name>
EPHEDRINE HYDROCHLORIDE

$$$$

     RDKit          2D

 11 11  0  0  0  0  0  0  0  0999 V2000
    4.2458   -4.3961    0.0000 Na  0  0  0  0  0 15  0  0  0  0  0  0
    4.0568   -5.7047    0.0000 C   0  0  0  0  0  0  0  0  0  0  0  0
    4.0422   -6.5432    0.0000 C   0  0  0  0  0  0  0  0  0  0  0  0
    5.3121   -6.1555    0.0000 N   0  0  0  0  0  0  0  0  0  0  0  0
    3.3588   -5.2927    0.0000 C   0  0  0  0  0  0  0  0  0  0  0  0
    3.3297   -6.9261    0.0000 N   0  0  0  0  0  0  0  0  0  0  0  0
    4.8129   -6.8194    0.0000 N   0  0  0  0  0  0  0  0  0  0  0  0
    2.6367   -5.6756    0.0000 N   0  0  0  0  0  0  0  0  0  0  0  0
    2.6076   -6.5141    0.0000 C   0  0  0  0  0  0  0  0  0  0  0  0
    4.8468   -5.4672    0.0000 C   0  0  0  0  0  0  0  0  0  0  0  0
    3.3637   -4.4542    0.0000 O   0  0  0  0  0  0  0  0  0  0  0  0
  3  2  2  0
  4 10  2  0
  5  2  1  0
  6  3  1  0
  7  3  1  0
  8  5  1  0
  9  8  1  0
 10  2  1  0
 11  5  2  0
  4  7  1  0
  9  6  2  0
M  CHG  2   1   1   8  -1
M  END
> <chembl_id>
CHEMBL1200477

> <chembl_pref_name>
ALLOPURINOL SODIUM

$$$$

     RDKit          2D

 13 12  0  0  0  0  0  0  0  0999 V2000
    3.1792   -8.2792    0.0000 Cl  0  0  0  0  0  0  0  0  0  0  0  0
    4.5667   -7.1792    0.0000 C   0  0  0  0  0  0  0  0  0  0  0  0
    5.1792   -7.5375    0.0000 C   0  0  0  0  0  0  0  0  0  0  0  0
    3.9542   -7.5417    0.0000 C   0  0  0  0  0  0  0  0  0  0  0  0
    3.3375   -7.1792    0.0000 N   0  0  0  0  0  0  0  0  0  0  0  0
    4.5667   -6.4792    0.0000 O   0  0  0  0  0  0  0  0  0  0  0  0
    5.7917   -7.1875    0.0000 C   0  0  0  0  0  0  0  0  0  0  0  0
    5.1792   -8.2417    0.0000 C   0  0  0  0  0  0  0  0  0  0  0  0
    2.7250   -7.5417    0.0000 C   0  0  0  0  0  0  0  0  0  0  0  0
    3.9542   -8.2542    0.0000 C   0  0  0  0  0  0  0  0  0  0  0  0
    6.4125   -7.5292    0.0000 C   0  0  0  0  0  0  0  0  0  0  0  0
    5.8000   -8.6042    0.0000 C   0  0  0  0  0  0  0  0  0  0  0  0
    6.4125   -8.2500    0.0000 C   0  0  0  0  0  0  0  0  0  0  0  0
  3  2  1  0
  4  2  1  0
  5  4  1  0
  2  6  1  1
  7  3  1  0
  8  3  2  0
  9  5  1  0
  4 10  1  6
 11  7  2  0
 12  8  1  0
 13 11  1  0
 13 12  2  0
M  END
> <chembl_id>
CHEMBL1200724

> <chembl_pref_name>
PSEUDOEPHEDRINE HYDROCHLORIDE

$$$$

     RDKit          2D

  9  9  0  0  0  0  0  0  0  0999 V2000
    4.9125   -6.3375    0.0000 C   0  0  0  0  0  0  0  0  0  0  0  0
    4.2917   -6.7000    0.0000 C   0  0  0  0  0  0  0  0  0  0  0  0
    4.9000   -5.6292    0.0000 N   0  0  0  0  0  0  0  0  0  0  0  0
    4.3000   -7.4042    0.0000 O   0  0  0  0  0  0  0  0  0  0  0  0
    6.1375   -6.3250    0.0000 N   0  0  0  0  0  0  0  0  0  0  0  0
    3.6792   -6.3542    0.0000 N   0  0  0  0  0  0  0  0  0  0  0  0
    5.5250   -6.6792    0.0000 C   0  0  0  0  0  0  0  0  0  0  0  0
    5.5167   -5.2667    0.0000 C   0  0  0  0  0  0  0  0  0  0  0  0
    6.1292   -5.6167    0.0000 C   0  0  0  0  0  0  0  0  0  0  0  0
  2  1  1  0
  3  1  2  0
  4  2  2  0
  5  7  2  0
  6  2  1  0
  7  1  1  0
  8  3  1  0
  9  5  1  0
  9  8  2  0
M  END
> <chembl_id>
CHEMBL614

> <chembl_pref_name>
PYRAZINAMIDE

$$$$

     RDKit          2D

  1  0  0  0  0  0  0  0  0  0999 V2000
    0.0000    0.0000    0.0000 S   0  0  0  0  0 15  0  0  0  0  0  0
M  END
> <chembl_id>
CHEMBL2105487

> <chembl_pref_name>
SULFUR, PRECIPITATED

$$$$

     RDKit          2D

  6  4  0  0  0  0  0  0  0  0999 V2000
   -1.6583   -1.3417    0.0000 Mg  0  0  0  0  0 15  0  0  0  0  0  0
   -1.4458   -0.3042    0.0000 S   0  0  0  0  0  0  0  0  0  0  0  0
   -2.0583   -0.6625    0.0000 O   0  0  0  0  0  0  0  0  0  0  0  0
   -0.8333   -0.6625    0.0000 O   0  0  0  0  0  0  0  0  0  0  0  0
   -1.0958    0.3125    0.0000 O   0  0  0  0  0  0  0  0  0  0  0  0
   -1.8083    0.3125    0.0000 O   0  0  0  0  0  0  0  0  0  0  0  0
  3  2  1  0
  4  2  1  0
  5  2  2  0
  6  2  2  0
M  CHG  3   1   2   3  -1   4  -1
M  END
> <chembl_id>
CHEMBL2021423

> <chembl_pref_name>
MAGNESIUM SULFATE ANHYDROUS

$$$$

     RDKit          2D

 16 16  0  0  0  0  0  0  0  0999 V2000
    1.6667   -1.0542    0.0000 C   0  0  0  0  0  0  0  0  0  0  0  0
    2.2792   -1.4042    0.0000 C   0  0  0  0  0  0  0  0  0  0  0  0
    1.0542   -1.4125    0.0000 O   0  0  0  0  0  0  0  0  0  0  0  0
    2.2875   -2.1167    0.0000 O   0  0  0  0  0  0  0  0  0  0  0  0
    0.4417   -1.0542    0.0000 C   0  0  0  0  0  0  0  0  0  0  0  0
   -0.7833   -0.3500    0.0000 C   0  0  0  0  0  0  0  0  0  0  0  0
    2.8917   -1.0500    0.0000 O   0  0  0  0  0  0  0  0  0  0  0  0
   -1.3958    0.0083    0.0000 Cl  0  0  0  0  0  0  0  0  0  0  0  0
   -0.1708   -1.4125    0.0000 C   0  0  0  0  0  0  0  0  0  0  0  0
    0.4417   -0.3417    0.0000 C   0  0  0  0  0  0  0  0  0  0  0  0
   -0.7833   -1.0542    0.0000 C   0  0  0  0  0  0  0  0  0  0  0  0
   -0.1708    0.0083    0.0000 C   0  0  0  0  0  0  0  0  0  0  0  0
    2.0167   -0.4375    0.0000 C   0  0  0  0  0  0  0  0  0  0  0  0
    1.3125   -0.4375    0.0000 C   0  0  0  0  0  0  0  0  0  0  0  0
    3.5125   -1.4042    0.0000 C   0  0  0  0  0  0  0  0  0  0  0  0
    4.1250   -1.0417    0.0000 C   0  0  0  0  0  0  0  0  0  0  0  0
  2  1  1  0
  3  1  1  0
  4  2  2  0
  5  3  1  0
  6 12  1  0
  7  2  1  0
  8  6  1  0
  9  5  2  0
 10  5  1  0
 11  9  1  0
 12 10  2  0
 13  1  1  0
 14  1  1  0
 15  7  1  0
 16 15  1  0
  6 11  2  0
M  END
> <chembl_id>
CHEMBL565

> <chembl_pref_name>
CLOFIBRATE

$$$$

     RDKit          2D

 12 12  0  0  0  0  0  0  0  0999 V2000
    5.9542   -5.7667    0.0000 C   0  0  0  0  0  0  0  0  0  0  0  0
    6.5292   -5.3917    0.0000 O   0  0  0  0  0  0  0  0  0  0  0  0
    5.9542   -6.4917    0.0000 O   0  0  0  0  0  0  0  0  0  0  0  0
    3.4917   -5.7792    0.0000 C   0  0  0  0  0  0  0  0  0  0  0  0
    5.3417   -5.4167    0.0000 C   0  0  0  0  0  0  0  0  0  0  0  0
    4.7292   -5.7792    0.0000 C   0  0  0  0  0  0  0  0  0  0  0  0
    4.1125   -5.4292    0.0000 C   0  0  0  0  0  0  0  0  0  0  0  0
    3.4917   -6.4917    0.0000 C   0  0  0  0  0  0  0  0  0  0  0  0
    2.8792   -5.4292    0.0000 C   0  0  0  0  0  0  0  0  0  0  0  0
    2.2667   -5.7792    0.0000 C   0  0  0  0  0  0  0  0  0  0  0  0
    2.8792   -6.8500    0.0000 C   0  0  0  0  0  0  0  0  0  0  0  0
    2.2667   -6.4917    0.0000 C   0  0  0  0  0  0  0  0  0  0  0  0
  2  1  1  0
  3  1  2  0
  4  7  1  0
  5  1  1  0
  6  5  1  0
  7  6  1  0
  8  4  2  0
  9  4  1  0
 10  9  2  0
 11  8  1  0
 12 11  2  0
 12 10  1  0
M  END
> <chembl_id>
CHEMBL1469

> <chembl_pref_name>
PHENYLBUTANOIC ACID

$$$$

     RDKit          2D

  4  3  0  0  0  0  0  0  0  0999 V2000
    0.1473   -1.1776    0.0000 O   0  0  0  0  0  0  0  0  0  0  0  0
    0.9416   -2.3860    0.0000 O   0  0  0  0  0  0  0  0  0  0  0  0
   -0.4671   -2.4677    0.0000 O   0  0  0  0  0  0  0  0  0  0  0  0
    0.2125   -2.0000    0.0000 Al  0  0  0  0  0  3  0  0  0  0  0  0
  1  4  1  0
  4  2  1  0
  4  3  1  0
M  END
> <chembl_id>
CHEMBL1200706

> <chembl_pref_name>
ALUMINUM HYDROXIDE

$$$$

     RDKit          2D

  8  8  0  0  0  0  0  0  0  0999 V2000
   41.0124  -25.9728    0.0000 C   0  0  0  0  0  0  0  0  0  0  0  0
   41.7269  -26.3853    0.0000 N   0  0  0  0  0  0  0  0  0  0  0  0
   42.4414  -25.9728    0.0000 C   0  0  0  0  0  0  0  0  0  0  0  0
   42.4414  -25.1478    0.0000 C   0  0  0  0  0  0  0  0  0  0  0  0
   41.7269  -24.7353    0.0000 C   0  0  0  0  0  0  0  0  0  0  0  0
   41.0124  -25.1478    0.0000 C   0  0  0  0  0  0  0  0  0  0  0  0
   40.2980  -24.7353    0.0000 N   0  0  0  0  0  0  0  0  0  0  0  0
   41.7269  -23.9103    0.0000 N   0  0  0  0  0  0  0  0  0  0  0  0
  2  3  1  0
  3  4  2  0
  4  5  1  0
  5  6  2  0
  1  6  1  0
  6  7  1  0
  5  8  1  0
  2  1  2  0
M  END
> <chembl_id>
CHEMBL354077

> <chembl_pref_name>
AMIFAMPRIDINE

$$$$

     RDKit          2D

 18 19  0  0  0  0  0  0  0  0999 V2000
    4.9917   -4.2417    0.0000 C   0  0  0  0  0  0  0  0  0  0  0  0
    3.7750   -4.2417    0.0000 N   0  0  0  0  0  0  0  0  0  0  0  0
    4.3792   -4.6042    0.0000 C   0  0  0  0  0  0  0  0  0  0  0  0
    5.6125   -4.6167    0.0000 C   0  0  0  0  0  0  0  0  0  0  0  0
    4.9917   -3.5375    0.0000 O   0  0  0  0  0  0  0  0  0  0  0  0
    5.6292   -5.3375    0.0000 C   0  0  0  0  0  0  0  0  0  0  0  0
    6.2250   -4.2542    0.0000 C   0  0  0  0  0  0  0  0  0  0  0  0
    6.2375   -5.6792    0.0000 C   0  0  0  0  0  0  0  0  0  0  0  0
    6.8500   -4.6167    0.0000 C   0  0  0  0  0  0  0  0  0  0  0  0
    6.8500   -5.3167    0.0000 C   0  0  0  0  0  0  0  0  0  0  0  0
    3.0917   -4.4625    0.0000 C   0  0  0  0  0  0  0  0  0  0  0  0
    3.7750   -3.5375    0.0000 C   0  0  0  0  0  0  0  0  0  0  0  0
    4.3792   -5.3042    0.0000 C   0  0  0  0  0  0  0  0  0  0  0  0
    7.4542   -5.6792    0.0000 C   0  0  0  0  0  0  0  0  0  0  0  0
    3.7750   -5.6667    0.0000 C   0  0  0  0  0  0  0  0  0  0  0  0
    3.1042   -3.3167    0.0000 C   0  0  0  0  0  0  0  0  0  0  0  0
    2.6917   -3.8792    0.0000 C   0  0  0  0  0  0  0  0  0  0  0  0
    3.7750   -6.3750    0.0000 C   0  0  0  0  0  0  0  0  0  0  0  0
  2  3  1  0
  3  1  1  0
  4  1  1  0
  5  1  2  0
  6  4  2  0
  7  4  1  0
  8  6  1  0
  9  7  2  0
 10  9  1  0
 11  2  1  0
 12  2  1  0
 13  3  1  0
 14 10  1  0
 15 13  1  0
 16 12  1  0
 17 11  1  0
 18 15  1  0
  8 10  2  0
 17 16  1  0
M  END
> <chembl_id>
CHEMBL201960

> <chembl_pref_name>
PYROVALERONE

$$$$

     RDKit          2D

 16 18  0  0  0  0  0  0  0  0999 V2000
    1.7642    2.1554    0.0000 C   0  0  0  0  0  0  0  0  0  0  0  0
    1.3015    1.4684    0.0000 C   0  0  0  0  0  0  0  0  0  0  0  0
    1.8127    0.8191    0.0000 O   0  0  0  0  0  0  0  0  0  0  0  0
    2.5579    1.9302    0.0000 C   0  0  0  0  0  0  0  0  0  0  0  0
    2.5882    1.1077    0.0000 C   0  0  0  0  0  0  0  0  0  0  0  0
    3.3145    0.7245    0.0000 C   0  0  0  0  0  0  0  0  0  0  0  0
    3.2498    2.3676    0.0000 C   0  0  0  0  0  0  0  0  0  0  0  0
    3.9764    1.9881    0.0000 C   0  0  0  0  0  0  0  0  0  0  0  0
    4.0083    1.1584    0.0000 C   0  0  0  0  0  0  0  0  0  0  0  0
    4.7388    0.7734    0.0000 O   0  0  0  0  0  0  0  0  0  0  0  0
    5.4420    1.2135    0.0000 C   0  0  0  0  0  0  0  0  0  0  0  0
    5.4100    2.0434    0.0000 C   0  0  0  0  0  0  0  0  0  0  0  0
    4.6750    2.4328    0.0000 C   0  0  0  0  0  0  0  0  0  0  0  0
    6.1691    0.8290    0.0000 O   0  0  0  0  0  0  0  0  0  0  0  0
    3.2158    3.1894    0.0000 O   0  0  0  0  0  0  0  0  0  0  0  0
    3.9105    3.6295    0.0000 C   0  0  0  0  0  0  0  0  0  0  0  0
  7  4  1  0
  8  9  1  0
  4  1  1  0
  2  3  1  0
  4  5  2  0
  1  2  2  0
  5  6  1  0
  8 13  1  0
  9 10  1  0
 10 11  1  0
 11 12  1  0
 12 13  2  0
  6  9  2  0
 11 14  2  0
  3  5  1  0
  7 15  1  0
  8  7  2  0
 15 16  1  0
M  END
> <chembl_id>
CHEMBL24171

> <chembl_pref_name>
BERGAPTEN

$$$$

     RDKit          2D

 19 20  0  0  0  0  0  0  0  0999 V2000
   -4.9105    0.2330    0.0000 N   0  0  0  0  0  0  0  0  0  0  0  0
   -5.4939   -0.3504    0.0000 C   0  0  0  0  0  0  0  0  0  0  0  0
   -5.1193   -1.0854    0.0000 C   0  0  0  0  0  0  0  0  0  0  0  0
   -4.3045   -0.9564    0.0000 N   0  0  0  0  0  0  0  0  0  0  0  0
   -4.1755   -0.1416    0.0000 C   0  0  0  0  0  0  0  0  0  0  0  0
   -6.3087   -0.2213    0.0000 N   0  0  0  0  0  0  0  0  0  0  0  0
   -6.6044    0.5489    0.0000 O   0  0  0  0  0  0  0  0  0  0  0  0
   -6.8607   -0.8345    0.0000 O   0  0  0  0  0  0  0  0  0  0  0  0
   -5.0396    1.0478    0.0000 C   0  0  0  0  0  0  0  0  0  0  0  0
   -3.4404    0.2330    0.0000 C   0  0  0  0  0  0  0  0  0  0  0  0
   -2.7485   -0.2163    0.0000 O   0  0  0  0  0  0  0  0  0  0  0  0
   -2.0134    0.1582    0.0000 C   0  0  0  0  0  0  0  0  0  0  0  0
   -1.3215   -0.2911    0.0000 C   0  0  0  0  0  0  0  0  0  0  0  0
   -0.5864    0.0834    0.0000 C   0  0  0  0  0  0  0  0  0  0  0  0
   -0.5432    0.9073    0.0000 C   0  0  0  0  0  0  0  0  0  0  0  0
   -1.2351    1.3566    0.0000 C   0  0  0  0  0  0  0  0  0  0  0  0
   -1.9702    0.9821    0.0000 C   0  0  0  0  0  0  0  0  0  0  0  0
    0.1713    1.3198    0.0000 S   0  0  0  0  0  0  0  0  0  0  0  0
    0.8857    0.9073    0.0000 C   0  0  0  0  0  0  0  0  0  0  0  0
  1  2  1  0
  2  3  2  0
  3  4  1  0
  4  5  2  0
  1  5  1  0
  2  6  1  0
  6  7  2  0
  6  8  1  0
  1  9  1  0
  5 10  1  0
 10 11  1  0
 11 12  1  0
 13 14  2  0
 14 15  1  0
 15 16  2  0
 16 17  1  0
 12 13  1  0
 12 17  2  0
 15 18  1  0
 18 19  1  0
M  CHG  2   6   1   8  -1
M  END
> <chembl_id>
CHEMBL1631694

> <chembl_pref_name>
FEXINIDAZOLE

$$$$

     RDKit          2D

 18 19  0  0  0  0  0  0  0  0999 V2000
    2.9080   -3.2940    0.0000 C   0  0  0  0  0  0  0  0  0  0  0  0
    3.7327   -3.3187    0.0000 C   0  0  0  0  0  0  0  0  0  0  0  0
    4.2661   -2.6894    0.0000 C   0  0  0  0  0  0  0  0  0  0  0  0
    5.2840   -3.6922    0.0000 N   0  0  0  0  0  0  0  0  0  0  0  0
    5.0646   -2.8970    0.0000 C   0  0  0  0  0  0  0  0  0  0  0  0
    5.6435   -2.3092    0.0000 O   0  0  0  0  0  0  0  0  0  0  0  0
    4.1067   -1.8799    0.0000 N   0  0  0  0  0  0  0  0  0  0  0  0
    2.4132   -2.6339    0.0000 C   0  0  0  0  0  0  0  0  0  0  0  0
    3.1657   -2.0453    0.0000 C   0  0  0  0  0  0  0  0  0  0  0  0
    2.6207   -1.8355    0.0000 N   0  0  0  0  0  0  0  0  0  0  0  0
    1.9406   -3.3102    0.0000 H   0  0  0  0  0  0  0  0  0  0  0  0
    3.3744   -1.4999    0.0000 C   0  0  0  0  0  0  0  0  0  0  0  0
    3.3991   -0.6753    0.0000 O   0  0  0  0  0  0  0  0  0  0  0  0
    1.2148   -1.5803    0.0000 S   0  0  0  0  0  0  0  0  0  0  0  0
    0.4381   -1.8586    0.0000 O   0  0  0  0  0  0  0  0  0  0  0  0
    1.9914   -1.3020    0.0000 O   0  0  0  0  0  0  0  0  0  0  0  0
    0.9365   -0.8037    0.0000 O   0  0  0  0  0  0  0  0  0  0  0  0
    1.4930   -2.3570    0.0000 O   0  0  0  0  0  0  0  0  0  0  0  0
  1  2  1  0
  1  8  1  0
  2  3  1  0
  3  5  1  6
  4  5  1  0
  5  6  2  0
  7  3  1  0
  7 12  1  0
  8  9  1  0
  8 10  1  0
  8 11  1  6
 10 12  1  0
 10 16  1  0
 12 13  2  0
 14 15  2  0
 14 16  1  0
 14 17  1  0
 18 14  2  0
  7  9  1  0
M  END
> <chembl_id>
CHEMBL1689063

> <chembl_pref_name>
AVIBACTAM

$$$$

     RDKit          2D

 16 15  0  0  0  0  0  0  0  0999 V2000
   -5.0282    0.3221    0.0000 C   0  0  0  0  0  0  0  0  0  0  0  0
   -4.6215    1.0399    0.0000 S   0  0  0  0  0  0  0  0  0  0  0  0
   -3.9037    0.6332    0.0000 O   0  0  0  0  0  0  0  0  0  0  0  0
   -3.1926    1.0516    0.0000 C   0  0  0  0  0  0  0  0  0  0  0  0
   -2.4748    0.6449    0.0000 C   0  0  0  0  0  0  0  0  0  0  0  0
   -1.7637    1.0632    0.0000 C   0  0  0  0  0  0  0  0  0  0  0  0
   -1.0459    0.6566    0.0000 C   0  0  0  0  0  0  0  0  0  0  0  0
   -0.3348    1.0749    0.0000 O   0  0  0  0  0  0  0  0  0  0  0  0
    0.3830    0.6682    0.0000 S   0  0  0  0  0  0  0  0  0  0  0  0
    0.7896    1.3860    0.0000 C   0  0  0  0  0  0  0  0  0  0  0  0
   -4.2149    1.7577    0.0000 O   0  0  0  0  0  0  0  0  0  0  0  0
   -5.3393    1.4466    0.0000 O   0  0  0  0  0  0  0  0  0  0  0  0
   -2.4681   -0.1801    0.0000 O   0  0  0  0  0  0  0  0  0  0  0  0
   -1.7705    1.8882    0.0000 O   0  0  0  0  0  0  0  0  0  0  0  0
   -0.0237   -0.0496    0.0000 O   0  0  0  0  0  0  0  0  0  0  0  0
    1.1008    0.2616    0.0000 O   0  0  0  0  0  0  0  0  0  0  0  0
  1  2  1  0
  2  3  1  0
  3  4  1  0
  4  5  1  0
  5  6  1  0
  6  7  1  0
  7  8  1  0
  8  9  1  0
  9 10  1  0
  2 11  2  0
  2 12  2  0
  5 13  1  1
  6 14  1  1
  9 15  2  0
  9 16  2  0
M  END
> <chembl_id>
CHEMBL455186

> <chembl_pref_name>
TREOSULFAN

$$$$

     RDKit          2D

 17 17  0  0  0  0  0  0  0  0999 V2000
   -0.1144    0.4578    0.0000 C   0  0  0  0  0  0  0  0  0  0  0  0
   -0.5332   -0.2530    0.0000 C   0  0  0  0  0  0  0  0  0  0  0  0
   -1.3705   -1.6808    0.0000 C   0  0  0  0  0  0  0  0  0  0  0  0
   -1.8073   -2.3947    0.0000 Cl  0  0  0  0  0  0  0  0  0  0  0  0
   -1.3615   -0.2530    0.0000 C   0  0  0  0  0  0  0  0  0  0  0  0
   -0.1144   -0.9428    0.0000 C   0  0  0  0  0  0  0  0  0  0  0  0
   -0.5332   -1.6567    0.0000 C   0  0  0  0  0  0  0  0  0  0  0  0
   -1.7772   -0.9669    0.0000 C   0  0  0  0  0  0  0  0  0  0  0  0
    0.7105    0.4506    0.0000 C   0  0  0  0  0  0  0  0  0  0  0  0
    1.1292    1.1615    0.0000 C   0  0  0  0  0  0  0  0  0  0  0  0
    1.9542    1.1543    0.0000 C   0  0  0  0  0  0  0  0  0  0  0  0
    0.7105   -0.3744    0.0000 C   0  0  0  0  0  0  0  0  0  0  0  0
    1.5074    0.2371    0.0000 O   0  0  0  0  0  0  0  0  0  0  0  0
    0.7230    1.8795    0.0000 C   0  0  0  0  0  0  0  0  0  0  0  0
    2.3729    1.8651    0.0000 N   0  0  0  0  0  0  0  0  0  0  0  0
    3.1979    1.8579    0.0000 C   0  0  0  0  0  0  0  0  0  0  0  0
    1.9667    2.5832    0.0000 C   0  0  0  0  0  0  0  0  0  0  0  0
  2  1  1  0
  3  7  1  0
  4  3  1  0
  5  2  2  0
  6  2  1  0
  7  6  2  0
  8  5  1  0
  8  3  2  0
  1  9  1  0
  9 10  1  0
 10 11  1  0
  9 12  1  0
  9 13  1  0
 10 14  1  0
 11 15  1  0
 15 16  1  0
 15 17  1  0
M  END
> <chembl_id>
CHEMBL1474889

> <chembl_pref_name>
CLOBUTINOL

$$$$

     RDKit          2D

 13 12  0  0  0  0  0  0  0  0999 V2000
    3.8395    0.0000    0.0000 P   0  0  0  0  0  0  0  0  0  0  0  0
    3.8395   -0.8250    0.0000 O   0  0  0  0  0  0  0  0  0  0  0  0
    3.8395    0.8250    0.0000 O   0  0  0  0  0  0  0  0  0  0  0  0
    4.6645    0.0000    0.0000 O   0  0  0  0  0  0  0  0  0  0  0  0
    3.0145    0.0000    0.0000 O   0  0  0  0  0  0  0  0  0  0  0  0
    0.1786    0.5156    0.0000 C   0  0  0  0  0  0  0  0  0  0  0  0
    0.8931    0.1031    0.0000 C   0  0  0  0  0  0  0  0  0  0  0  0
    0.8931   -0.7219    0.0000 N   0  0  0  0  0  0  0  0  0  0  0  0
    0.1786   -1.1344    0.0000 C   0  0  0  0  0  0  0  0  0  0  0  0
   -0.5359   -0.7219    0.0000 C   0  0  0  0  0  0  0  0  0  0  0  0
   -0.5359    0.1031    0.0000 C   0  0  0  0  0  0  0  0  0  0  0  0
    0.1786    1.3406    0.0000 N   0  0  0  0  0  0  0  0  0  0  0  0
   -1.2503    0.5156    0.0000 N   0  0  0  0  0  0  0  0  0  0  0  0
  1  2  2  0
  1  3  1  0
  1  4  1  0
  1  5  1  0
  6  7  2  0
  6 11  1  0
  7  8  1  0
  8  9  2  0
  9 10  1  0
 10 11  2  0
  6 12  1  0
 11 13  1  0
M  END
> <chembl_id>
CHEMBL3301611

> <chembl_pref_name>
AMIFAMPRIDINE PHOSPHATE

$$$$

     RDKit          2D

 14 14  0  0  0  0  0  0  0  0999 V2000
   -0.7250   -3.0542    0.0000 N   0  0  0  0  0  0  0  0  0  0  0  0
   -1.3458   -2.6917    0.0000 C   0  0  0  0  0  0  0  0  0  0  0  0
   -0.1125   -2.7042    0.0000 C   0  0  0  0  0  0  0  0  0  0  0  0
   -1.3458   -1.9917    0.0000 N   0  0  0  0  0  0  0  0  0  0  0  0
   -0.1125   -1.9875    0.0000 C   0  0  0  0  0  0  0  0  0  0  0  0
   -0.7250   -1.6292    0.0000 C   0  0  0  0  0  0  0  0  0  0  0  0
   -1.9750   -3.0375    0.0000 O   0  0  0  0  0  0  0  0  0  0  0  0
    0.5167   -3.0750    0.0000 O   0  0  0  0  0  0  0  0  0  0  0  0
   -0.7250   -0.9250    0.0000 O   0  0  0  0  0  0  0  0  0  0  0  0
   -0.7250   -3.7667    0.0000 C   0  0  0  0  0  0  0  0  0  0  0  0
    0.2375   -1.3667    0.0000 C   0  0  0  0  0  0  0  0  0  0  0  0
    0.5917   -1.9875    0.0000 C   0  0  0  0  0  0  0  0  0  0  0  0
    0.9417   -1.3625    0.0000 C   0  0  0  0  0  0  0  0  0  0  0  0
    0.9500   -2.6000    0.0000 C   0  0  0  0  0  0  0  0  0  0  0  0
  2  1  1  0
  3  1  1  0
  4  2  1  0
  5  3  1  0
  6  5  1  0
  7  2  2  0
  8  3  2  0
  9  6  2  0
 10  1  1  0
 11  5  1  0
 12  5  1  0
 13 11  1  0
 14 12  1  0
  6  4  1  0
M  END
> <chembl_id>
CHEMBL450

> <chembl_pref_name>
METHARBITAL

$$$$

     RDKit          2D

 15 15  0  0  0  0  0  0  0  0999 V2000
   -0.4750    0.9833    0.0000 C   0  0  0  0  0  0  0  0  0  0  0  0
    0.8542   -1.3250    0.0000 C   0  0  0  0  0  0  0  0  0  0  0  0
    0.8542    0.2208    0.0000 C   0  0  0  0  0  0  0  0  0  0  0  0
   -1.8083    0.2000    0.0000 N   0  0  0  0  0  0  0  0  0  0  0  0
   -0.4625   -2.0792    0.0000 N   0  0  0  0  0  0  0  0  0  0  0  0
   -1.8083   -1.3042    0.0000 C   0  0  0  0  0  0  0  0  0  0  0  0
    2.1542   -2.1000    0.0000 O   0  0  0  0  0  0  0  0  0  0  0  0
   -0.4750    2.2250    0.0000 O   0  0  0  0  0  0  0  0  0  0  0  0
   -3.1375   -2.1000    0.0000 O   0  0  0  0  0  0  0  0  0  0  0  0
    2.1667   -0.2500    0.0000 C   0  0  0  0  0  0  0  0  0  0  0  0
    1.2417    1.5208    0.0000 C   0  0  0  0  0  0  0  0  0  0  0  0
    2.1917   -1.3542    0.0000 C   0  0  0  0  0  0  0  0  0  0  0  0
    2.3917    0.9583    0.0000 C   0  0  0  0  0  0  0  0  0  0  0  0
    2.5000    2.2875    0.0000 C   0  0  0  0  0  0  0  0  0  0  0  0
    3.4042   -2.0792    0.0000 C   0  0  0  0  0  0  0  0  0  0  0  0
  2  3  1  0
  3  1  1  0
  4  1  1  0
  5  6  1  0
  6  4  1  0
  7  2  2  0
  8  1  2  0
  9  6  2  0
 10  3  1  0
 11  3  1  0
 12 10  1  0
 13 10  1  0
 14 11  1  0
 15 12  1  0
  2  5  1  0
M  END
> <chembl_id>
CHEMBL449

> <chembl_pref_name>
BUTABARBITAL

$$$$

     RDKit          2D

  8  6  0  0  0  0  0  0  0  0999 V2000
    6.8414   -7.2936    0.0000 K   0  0  0  0  0 15  0  0  0  0  0  0
    5.3077   -7.5216    0.0000 C   0  0  0  0  0  0  0  0  0  0  0  0
    6.0154   -7.9377    0.0000 O   0  0  0  0  0  0  0  0  0  0  0  0
    5.3077   -6.7278    0.0000 O   0  0  0  0  0  0  0  0  0  0  0  0
    2.4817   -7.5360    0.0000 O   0  0  0  0  0  0  0  0  0  0  0  0
    4.5952   -7.9377    0.0000 C   0  0  0  0  0  0  0  0  0  0  0  0
    3.1894   -7.9377    0.0000 C   0  0  0  0  0  0  0  0  0  0  0  0
    3.9019   -7.5216    0.0000 C   0  0  0  0  0  0  0  0  0  0  0  0
  3  2  1  0
  4  2  2  0
  5  7  1  0
  6  2  1  0
  7  8  1  0
  8  6  1  0
M  CHG  2   1   1   3  -1
M  END
> <chembl_id>
CHEMBL4594395

> <chembl_pref_name>
POTASSIUM OXYBATE

$$$$

     RDKit          2D

 15 14  0  0  0  0  0  0  0  0999 V2000
   -1.5974   -0.5844    0.0000 Cl  0  0  0  0  0  0  0  0  0  0  0  0
   -6.0584    1.3314    0.0000 C   0  0  0  0  0  0  0  0  0  0  0  0
   -6.7729    0.9190    0.0000 C   0  0  0  0  0  0  0  0  0  0  0  0
   -6.7729    0.0940    0.0000 C   0  0  0  0  0  0  0  0  0  0  0  0
   -6.0584   -0.3185    0.0000 C   0  0  0  0  0  0  0  0  0  0  0  0
   -5.3440    0.0940    0.0000 C   0  0  0  0  0  0  0  0  0  0  0  0
   -5.3440    0.9190    0.0000 C   0  0  0  0  0  0  0  0  0  0  0  0
   -4.6521    1.3683    0.0000 C   0  0  0  0  0  0  0  0  0  0  0  0
   -3.9376    0.9558    0.0000 C   0  0  0  0  0  0  0  0  0  0  0  0
   -3.2231    1.3683    0.0000 C   0  0  0  0  0  0  0  0  0  0  0  0
   -2.5311    0.9190    0.0000 O   0  0  0  0  0  0  0  0  0  0  0  0
   -1.8392    1.3683    0.0000 C   0  0  0  0  0  0  0  0  0  0  0  0
   -1.8392    2.1932    0.0000 O   0  0  0  0  0  0  0  0  0  0  0  0
   -1.1474    0.9190    0.0000 N   0  0  0  0  0  0  0  0  0  0  0  0
   -3.8944    0.1320    0.0000 N   0  0  0  0  0  0  0  0  0  0  0  0
  2  3  1  0
  3  4  2  0
  4  5  1  0
  5  6  2  0
  6  7  1  0
  2  7  2  0
  7  8  1  0
  8  9  1  0
  9 10  1  0
 10 11  1  0
 11 12  1  0
 12 13  2  0
 12 14  1  0
  9 15  1  6
M  END
> <chembl_id>
CHEMBL4297212

> <chembl_pref_name>
SOLRIAMFETOL HYDROCHLORIDE

$$$$

     RDKit          2D

 12 12  0  0  1  0  0  0  0  0999 V2000
    0.8000   -0.9667    0.0000 C   0  0  0  0  0  0  0  0  0  0  0  0
   -0.5708   -0.9625    0.0000 C   0  0  0  0  0  0  0  0  0  0  0  0
    1.4917    0.2333    0.0000 C   0  0  0  0  0  0  0  0  0  0  0  0
    0.8042    1.4250    0.0000 O   0  0  0  0  0  0  0  0  0  0  0  0
   -1.2625    0.2333    0.0000 C   0  0  0  0  0  0  0  0  0  0  0  0
   -0.5833    1.4250    0.0000 C   0  0  0  0  0  0  0  0  0  0  0  0
    1.8417   -2.5250    0.0000 F   0  0  0  0  0  0  0  0  0  0  0  0
   -1.2625   -2.1542    0.0000 O   0  0  0  0  0  0  0  0  0  0  0  0
   -2.6458    0.2333    0.0000 O   0  0  0  0  0  0  0  0  0  0  0  0
    2.8750    0.2333    0.0000 O   0  0  0  0  0  0  0  0  0  0  0  0
   -1.2750    2.6208    0.0000 C   0  0  0  0  0  0  0  0  0  0  0  0
   -2.7958    2.6208    0.0000 O   0  0  0  0  0  0  0  0  0  0  0  0
  2  1  1  0
  3  1  1  0
  4  3  1  0
  5  2  1  0
  6  4  1  0
  1  7  1  6
  2  8  1  1
  5  9  1  6
  3 10  1  6
  6 11  1  1
 12 11  1  0
  6  5  1  0
M  END
> <chembl_id>
CHEMBL1086863

> <chembl_pref_name>
FLUDEOXYGLUCOSE

$$$$

     RDKit          2D

 14 15  0  0  0  0  0  0  0  0999 V2000
   -0.1208   -1.0000    0.0000 C   0  0  0  0  0  0  0  0  0  0  0  0
   -0.1083   -0.2917    0.0000 C   0  0  0  0  0  0  0  0  0  0  0  0
   -0.7375   -1.3375    0.0000 N   0  0  0  0  0  0  0  0  0  0  0  0
   -1.3333   -0.2667    0.0000 N   0  0  0  0  0  0  0  0  0  0  0  0
   -1.3458   -0.9667    0.0000 C   0  0  0  0  0  0  0  0  0  0  0  0
   -0.7125    0.0750    0.0000 C   0  0  0  0  0  0  0  0  0  0  0  0
    0.5500   -1.2292    0.0000 N   0  0  0  0  0  0  0  0  0  0  0  0
    0.5792   -0.0917    0.0000 N   0  0  0  0  0  0  0  0  0  0  0  0
    0.9792   -0.6625    0.0000 C   0  0  0  0  0  0  0  0  0  0  0  0
   -1.9833   -1.3125    0.0000 O   0  0  0  0  0  0  0  0  0  0  0  0
   -0.7000    0.7875    0.0000 O   0  0  0  0  0  0  0  0  0  0  0  0
   -0.7500   -2.0542    0.0000 C   0  0  0  0  0  0  0  0  0  0  0  0
   -1.9375    0.1083    0.0000 C   0  0  0  0  0  0  0  0  0  0  0  0
    0.8125    0.5833    0.0000 C   0  0  0  0  0  0  0  0  0  0  0  0
  2  1  2  0
  3  1  1  0
  4  5  1  0
  5  3  1  0
  6  2  1  0
  7  1  1  0
  8  2  1  0
  9  7  2  0
 10  5  2  0
 11  6  2  0
 12  3  1  0
 13  4  1  0
 14  8  1  0
  8  9  1  0
  6  4  1  0
M  END
> <chembl_id>
CHEMBL113

> <chembl_pref_name>
CAFFEINE

$$$$

     RDKit          2D

 13 13  0  0  0  0  0  0  0  0999 V2000
   -0.2167    1.6458    0.0000 C   0  0  0  0  0  0  0  0  0  0  0  0
    0.4042    1.9958    0.0000 S   0  0  0  0  0  0  0  0  0  0  0  0
   -0.7917    2.0625    0.0000 S   0  0  0  0  0  0  0  0  0  0  0  0
   -1.3667    1.6458    0.0000 C   0  0  0  0  0  0  0  0  0  0  0  0
   -0.4333    0.9667    0.0000 N   0  0  0  0  0  0  0  0  0  0  0  0
   -1.1458    0.9667    0.0000 N   0  0  0  0  0  0  0  0  0  0  0  0
   -1.9833    1.9958    0.0000 N   0  0  0  0  0  0  0  0  0  0  0  0
   -2.6000    1.6458    0.0000 C   0  0  0  0  0  0  0  0  0  0  0  0
    0.0542    2.6083    0.0000 O   0  0  0  0  0  0  0  0  0  0  0  0
    0.7667    2.6083    0.0000 O   0  0  0  0  0  0  0  0  0  0  0  0
    1.0208    1.6333    0.0000 N   0  0  0  0  0  0  0  0  0  0  0  0
   -2.6000    0.9333    0.0000 O   0  0  0  0  0  0  0  0  0  0  0  0
   -3.2167    2.0000    0.0000 C   0  0  0  0  0  0  0  0  0  0  0  0
  2  1  1  0
  3  1  1  0
  4  3  1  0
  5  1  2  0
  6  5  1  0
  7  4  1  0
  8  7  1  0
  9  2  2  0
 10  2  2  0
 11  2  1  0
 12  8  2  0
 13  8  1  0
  4  6  2  0
M  END
> <chembl_id>
CHEMBL20

> <chembl_pref_name>
ACETAZOLAMIDE

$$$$

     RDKit          2D

  5  4  0  0  0  0  0  0  0  0999 V2000
    3.0176    0.3375    0.0000 Al  0  0  0  0  0  3  0  0  0  0  0  0
    4.4466    0.3375    0.0000 Al  0  0  0  0  0  3  0  0  0  0  0  0
    3.7321    0.7500    0.0000 O   0  0  0  0  0  0  0  0  0  0  0  0
    2.3031    0.7500    0.0000 O   0  0  0  0  0  0  0  0  0  0  0  0
    4.4466   -0.4875    0.0000 O   0  0  0  0  0  0  0  0  0  0  0  0
  1  4  2  0
  1  3  1  0
  3  2  1  0
  5  2  2  0
M  END
> <chembl_id>
CHEMBL4594252

> <chembl_pref_name>
ALUMINIUM OXIDE

$$$$

     RDKit          2D

  2  0  0  0  0  0  0  0  0  0999 V2000
   -0.5708   -1.1542    0.0000 Na  0  0  0  0  0 15  0  0  0  0  0  0
    0.5875   -1.1542    0.0000 F   0  0  0  0  0  0  0  0  0  0  0  0
M  CHG  2   1   1   2  -1
M  ISO  1   2  18
M  END
> <chembl_id>
CHEMBL1200744

> <chembl_pref_name>
SODIUM FLUORIDE F 18

$$$$

     RDKit          2D

  9  6  0  0  0  0  0  0  0  0999 V2000
   -0.1458   -1.1542    0.0000 Ca  0  0  0  0  0 15  0  0  0  0  0  0
   -1.4542   -0.9000    0.0000 C   0  0  0  0  0  0  0  0  0  0  0  0
   -0.8417   -1.2542    0.0000 O   0  0  0  0  0  0  0  0  0  0  0  0
   -1.4542   -0.1917    0.0000 O   0  0  0  0  0  0  0  0  0  0  0  0
   -2.0708   -1.2542    0.0000 C   0  0  0  0  0  0  0  0  0  0  0  0
    1.6917   -1.0167    0.0000 C   0  0  0  0  0  0  0  0  0  0  0  0
    1.0792   -1.3750    0.0000 O   0  0  0  0  0  0  0  0  0  0  0  0
    1.6917   -0.3125    0.0000 O   0  0  0  0  0  0  0  0  0  0  0  0
    2.3042   -1.3750    0.0000 C   0  0  0  0  0  0  0  0  0  0  0  0
  3  2  1  0
  4  2  2  0
  5  2  1  0
  7  6  1  0
  8  6  2  0
  9  6  1  0
M  CHG  3   1   2   3  -1   7  -1
M  END
> <chembl_id>
CHEMBL1200800

> <chembl_pref_name>
CALCIUM ACETATE

$$$$

     RDKit          2D

 22 23  0  0  0  0  0  0  0  0999 V2000
    6.6292   -4.2792    0.0000 C   0  0  0  0  0  0  0  0  0  0  0  0
    7.2292   -3.9250    0.0000 C   0  0  0  0  0  0  0  0  0  0  0  0
    3.5875   -5.3792    0.0000 C   0  0  0  0  0  0  0  0  0  0  0  0
    2.9542   -5.7292    0.0000 C   0  0  0  0  0  0  0  0  0  0  0  0
    3.5875   -4.6667    0.0000 C   0  0  0  0  0  0  0  0  0  0  0  0
    6.0250   -4.6375    0.0000 C   0  0  0  0  0  0  0  0  0  0  0  0
    7.8375   -3.5667    0.0000 C   0  0  0  0  0  0  0  0  0  0  0  0
    5.4167   -4.3000    0.0000 C   0  0  0  0  0  0  0  0  0  0  0  0
    4.2000   -4.3042    0.0000 N   0  0  0  0  0  0  0  0  0  0  0  0
    2.9542   -6.4417    0.0000 C   0  0  0  0  0  0  0  0  0  0  0  0
    4.2125   -5.7292    0.0000 C   0  0  0  0  0  0  0  0  0  0  0  0
    4.8167   -4.6542    0.0000 C   0  0  0  0  0  0  0  0  0  0  0  0
    4.2125   -6.4417    0.0000 C   0  0  0  0  0  0  0  0  0  0  0  0
    2.3292   -5.3792    0.0000 C   0  0  0  0  0  0  0  0  0  0  0  0
    3.5875   -6.8042    0.0000 C   0  0  0  0  0  0  0  0  0  0  0  0
    7.6042   -2.8875    0.0000 C   0  0  0  0  0  0  0  0  0  0  0  0
    8.1542   -2.9042    0.0000 C   0  0  0  0  0  0  0  0  0  0  0  0
    8.4417   -3.9042    0.0000 C   0  0  0  0  0  0  0  0  0  0  0  0
    4.2000   -3.6125    0.0000 C   0  0  0  0  0  0  0  0  0  0  0  0
    2.3292   -6.8042    0.0000 C   0  0  0  0  0  0  0  0  0  0  0  0
    1.7042   -5.7292    0.0000 C   0  0  0  0  0  0  0  0  0  0  0  0
    1.7042   -6.4417    0.0000 C   0  0  0  0  0  0  0  0  0  0  0  0
  2  1  3  0
  3  5  1  0
  4  3  2  0
  5  9  1  0
  6  1  1  0
  7  2  1  0
  8  6  2  0
  9 12  1  0
 10  4  1  0
 11  3  1  0
 12  8  1  0
 13 11  2  0
 14  4  1  0
 15 13  1  0
 16  7  1  0
 17  7  1  0
 18  7  1  0
 19  9  1  0
 20 10  1  0
 21 14  2  0
 22 21  1  0
 15 10  2  0
 22 20  2  0
M  END
> <chembl_id>
CHEMBL822

> <chembl_pref_name>
TERBINAFINE

$$$$

     RDKit          2D

 22 24  0  0  0  0  0  0  0  0999 V2000
    2.3750   -0.6542    0.0000 C   0  0  0  0  0  0  0  0  0  0  0  0
    1.4417   -1.1917    0.0000 C   0  0  0  0  0  0  0  0  0  0  0  0
    2.3750    0.4083    0.0000 C   0  0  0  0  0  0  0  0  0  0  0  0
    0.4917   -0.6542    0.0000 C   0  0  0  0  0  0  0  0  0  0  0  0
    1.4417    0.9375    0.0000 N   0  0  0  0  0  0  0  0  0  0  0  0
    0.4917    0.4083    0.0000 C   0  0  0  0  0  0  0  0  0  0  0  0
    3.2792   -1.1792    0.0000 C   0  0  0  0  0  0  0  0  0  0  0  0
   -0.4333    0.9375    0.0000 C   0  0  0  0  0  0  0  0  0  0  0  0
   -0.4333   -1.1917    0.0000 C   0  0  0  0  0  0  0  0  0  0  0  0
   -1.3625    0.4083    0.0000 C   0  0  0  0  0  0  0  0  0  0  0  0
    1.4542   -2.2417    0.0000 O   0  0  0  0  0  0  0  0  0  0  0  0
   -1.3625   -0.6542    0.0000 C   0  0  0  0  0  0  0  0  0  0  0  0
    4.2250   -0.6542    0.0000 O   0  0  0  0  0  0  0  0  0  0  0  0
   -4.1458    1.9375    0.0000 N   0  0  0  0  0  0  0  0  0  0  0  0
   -2.2875    0.9375    0.0000 C   0  0  0  0  0  0  0  0  0  0  0  0
    3.1875   -2.1792    0.0000 O   0  0  0  0  0  0  0  0  0  0  0  0
    1.4542    1.9958    0.0000 C   0  0  0  0  0  0  0  0  0  0  0  0
   -3.2333    2.5083    0.0000 C   0  0  0  0  0  0  0  0  0  0  0  0
   -4.1125    0.8833    0.0000 C   0  0  0  0  0  0  0  0  0  0  0  0
   -2.3000    2.0208    0.0000 C   0  0  0  0  0  0  0  0  0  0  0  0
   -3.1708    0.3750    0.0000 C   0  0  0  0  0  0  0  0  0  0  0  0
    2.3750    2.4833    0.0000 C   0  0  0  0  0  0  0  0  0  0  0  0
  2  1  1  0
  3  1  2  0
  4  2  1  0
  5  3  1  0
  6  5  1  0
  7  1  1  0
  8  6  1  0
  9  4  1  0
 10  8  2  0
 11  2  2  0
 12  9  2  0
 13  7  2  0
 14 19  1  0
 15 10  1  0
 16  7  1  0
 17  5  1  0
 18 20  1  0
 19 21  2  0
 20 15  2  0
 21 15  1  0
 22 17  1  0
  6  4  2  0
 10 12  1  0
 18 14  2  0
M  END
> <chembl_id>
CHEMBL291157

> <chembl_pref_name>
ROSOXACIN

$$$$

     RDKit          2D

 18 18  0  0  0  0  0  0  0  0999 V2000
   -2.1445    0.4100    0.0000 S   0  0  0  0  0  0  0  0  0  0  0  0
   -1.4302    0.8238    0.0000 N   0  0  0  0  0  0  0  0  0  0  0  0
   -2.7168    0.7388    0.0000 O   0  0  0  0  0  0  0  0  0  0  0  0
   -2.1433   -0.2500    0.0000 O   0  0  0  0  0  0  0  0  0  0  0  0
    0.7145   -0.4125    0.0000 C   0  0  0  0  0  0  0  0  0  0  0  0
    2.1414   -2.0664    0.0000 N   0  0  0  0  0  0  0  0  0  0  0  0
    1.4273   -1.6522    0.0000 C   0  0  0  0  0  0  0  0  0  0  0  0
    0.7145    0.4125    0.0000 C   0  0  0  0  0  0  0  0  0  0  0  0
    0.0000   -0.8250    0.0000 C   0  0  0  0  0  0  0  0  0  0  0  0
    1.4285   -0.8267    0.0000 C   0  0  0  0  0  0  0  0  0  0  0  0
   -0.7145    0.4125    0.0000 C   0  0  0  0  0  0  0  0  0  0  0  0
   -2.7155    0.0789    0.0000 C   0  0  0  0  0  0  0  0  0  0  0  0
    0.0000    0.8250    0.0000 C   0  0  0  0  0  0  0  0  0  0  0  0
   -0.7145   -0.4125    0.0000 C   0  0  0  0  0  0  0  0  0  0  0  0
    2.0007   -0.4977    0.0000 O   0  0  0  0  0  0  0  0  0  0  0  0
    2.1402   -2.8919    0.0000 C   0  0  0  0  0  0  0  0  0  0  0  0
    2.7111   -3.2231    0.0000 C   0  0  0  0  0  0  0  0  0  0  0  0
    1.5680   -3.2209    0.0000 C   0  0  0  0  0  0  0  0  0  0  0  0
  1  2  1  0
  1  3  2  0
  1  4  2  0
  6  7  1  0
  5  8  1  0
  5  9  2  0
  5 10  1  0
  7 10  1  0
  2 11  1  0
  1 12  1  0
  8 13  2  0
 11 13  1  0
  9 14  1  0
 11 14  2  0
 10 15  1  0
  6 16  1  0
 16 17  1  0
 16 18  1  0
M  END
> <chembl_id>
CHEMBL471

> <chembl_pref_name>
SOTALOL

$$$$

     RDKit          2D

 17 18  0  0  0  0  0  0  0  0999 V2000
    6.0792   -7.8167    0.0000 C   0  0  0  0  0  0  0  0  0  0  0  0
    6.6917   -7.4542    0.0000 C   0  0  0  0  0  0  0  0  0  0  0  0
    5.4667   -7.4625    0.0000 C   0  0  0  0  0  0  0  0  0  0  0  0
    6.0792   -8.5250    0.0000 O   0  0  0  0  0  0  0  0  0  0  0  0
    7.3042   -7.8125    0.0000 C   0  0  0  0  0  0  0  0  0  0  0  0
    4.8542   -6.3917    0.0000 N   0  0  0  0  0  0  0  0  0  0  0  0
    7.9250   -8.8667    0.0000 N   0  0  0  0  0  0  0  0  0  0  0  0
    5.4667   -6.7500    0.0000 C   0  0  0  0  0  0  0  0  0  0  0  0
    7.0500   -6.8375    0.0000 C   0  0  0  0  0  0  0  0  0  0  0  0
    6.3375   -6.8417    0.0000 C   0  0  0  0  0  0  0  0  0  0  0  0
    7.3042   -8.5167    0.0000 C   0  0  0  0  0  0  0  0  0  0  0  0
    4.8542   -7.8167    0.0000 C   0  0  0  0  0  0  0  0  0  0  0  0
    4.2417   -6.7500    0.0000 C   0  0  0  0  0  0  0  0  0  0  0  0
    8.5375   -8.5167    0.0000 C   0  0  0  0  0  0  0  0  0  0  0  0
    7.9167   -7.4542    0.0000 C   0  0  0  0  0  0  0  0  0  0  0  0
    4.2417   -7.4625    0.0000 C   0  0  0  0  0  0  0  0  0  0  0  0
    8.5292   -7.8042    0.0000 C   0  0  0  0  0  0  0  0  0  0  0  0
  2  1  1  0
  3  1  1  0
  4  1  2  0
  5  2  1  0
  6  8  2  0
  7 11  1  0
  8  3  1  0
  9  2  1  0
 10  2  1  0
 11  5  2  0
 12  3  2  0
 13 16  2  0
 14 17  1  0
 15  5  1  0
 16 12  1  0
 17 15  2  0
 13  6  1  0
 14  7  2  0
M  END
> <chembl_id>
CHEMBL934

> <chembl_pref_name>
METYRAPONE

$$$$

     RDKit          2D

 19 20  0  0  1  0  0  0  0  0999 V2000
    1.0875   -5.8167    0.0000 N   0  0  0  0  0  0  0  0  0  0  0  0
    0.4750   -5.4625    0.0000 C   0  0  0  0  0  0  0  0  0  0  0  0
    0.4750   -4.7542    0.0000 N   0  0  0  0  0  0  0  0  0  0  0  0
    1.0917   -6.7000    0.0000 C   0  0  0  0  0  0  0  0  0  0  0  0
    1.6958   -5.4625    0.0000 C   0  0  0  0  0  0  0  0  0  0  0  0
    1.6958   -4.7542    0.0000 C   0  0  0  0  0  0  0  0  0  0  0  0
    1.0875   -4.4000    0.0000 C   0  0  0  0  0  0  0  0  0  0  0  0
    0.5167   -6.2792    0.0000 O   0  0  0  0  0  0  0  0  0  0  0  0
    0.8750   -7.3750    0.0000 C   0  0  0  0  0  0  0  0  0  0  0  0
   -0.2583   -8.6542    0.0000 N   0  0  0  0  0  0  0  0  0  0  0  0
    0.1625   -7.3750    0.0000 C   0  0  0  0  0  0  0  0  0  0  0  0
   -0.0542   -6.7000    0.0000 C   0  0  0  0  0  0  0  0  0  0  0  0
   -0.2583   -9.3625    0.0000 N   0  0  0  0  0  0  0  0  0  0  0  0
   -0.2500   -7.9458    0.0000 N   0  0  0  0  0  0  0  0  0  0  0  0
   -0.1417   -5.8125    0.0000 O   0  0  0  0  0  0  0  0  0  0  0  0
    1.0875   -3.6917    0.0000 O   0  0  0  0  0  0  0  0  0  0  0  0
    2.3125   -4.4000    0.0000 C   0  0  0  0  0  0  0  0  0  0  0  0
   -0.6708   -6.3417    0.0000 C   0  0  0  0  0  0  0  0  0  0  0  0
   -1.2875   -6.6958    0.0000 O   0  0  0  0  0  0  0  0  0  0  0  0
  2  1  1  0
  3  2  1  0
  4  1  1  1
  5  1  1  0
  6  5  2  0
  7  6  1  0
  8  4  1  0
  9  4  1  0
 10 14  2  0
 11  9  1  0
 12  8  1  0
 13 10  2  0
 11 14  1  6
 15  2  2  0
 16  7  2  0
 17  6  1  0
 12 18  1  1
 19 18  1  0
 11 12  1  0
  7  3  1  0
M  CHG  2  10   1  13  -1
M  END
> <chembl_id>
CHEMBL129

> <chembl_pref_name>
ZIDOVUDINE

$$$$

     RDKit          2D

 20 23  0  0  0  0  0  0  0  0999 V2000
    5.1292   -4.4917    0.0000 N   0  0  0  0  0  0  0  0  0  0  0  0
    4.7292   -5.0792    0.0000 C   0  0  0  0  0  0  0  0  0  0  0  0
    4.6792   -3.9167    0.0000 C   0  0  0  0  0  0  0  0  0  0  0  0
    4.0167   -4.8667    0.0000 C   0  0  0  0  0  0  0  0  0  0  0  0
    4.0167   -4.1750    0.0000 C   0  0  0  0  0  0  0  0  0  0  0  0
    5.0917   -3.3250    0.0000 N   0  0  0  0  0  0  0  0  0  0  0  0
    5.4250   -5.3875    0.0000 C   0  0  0  0  0  0  0  0  0  0  0  0
    4.4375   -5.6292    0.0000 O   0  0  0  0  0  0  0  0  0  0  0  0
    5.7792   -4.2292    0.0000 C   0  0  0  0  0  0  0  0  0  0  0  0
    5.9542   -5.0167    0.0000 C   0  0  0  0  0  0  0  0  0  0  0  0
    5.4250   -6.0417    0.0000 C   0  0  0  0  0  0  0  0  0  0  0  0
    5.7792   -3.5417    0.0000 C   0  0  0  0  0  0  0  0  0  0  0  0
    6.6292   -5.9542    0.0000 C   0  0  0  0  0  0  0  0  0  0  0  0
    3.3875   -5.2375    0.0000 C   0  0  0  0  0  0  0  0  0  0  0  0
    6.6292   -5.3042    0.0000 C   0  0  0  0  0  0  0  0  0  0  0  0
    6.0917   -6.3625    0.0000 C   0  0  0  0  0  0  0  0  0  0  0  0
    7.3542   -6.2750    0.0000 Cl  0  0  0  0  0  0  0  0  0  0  0  0
    3.3875   -3.8000    0.0000 C   0  0  0  0  0  0  0  0  0  0  0  0
    2.7667   -4.8792    0.0000 C   0  0  0  0  0  0  0  0  0  0  0  0
    2.7667   -4.1667    0.0000 C   0  0  0  0  0  0  0  0  0  0  0  0
  2  1  1  0
  3  1  1  0
  4  2  1  0
  5  3  1  0
  6  3  2  0
  7  2  1  0
  8  2  1  0
  9  1  1  0
 10  7  1  0
 11  7  2  0
 12  9  1  0
 13 16  2  0
 14  4  1  0
 15 10  2  0
 16 11  1  0
 17 13  1  0
 18  5  1  0
 19 14  2  0
 20 18  2  0
 12  6  1  0
  5  4  2  0
 20 19  1  0
 13 15  1  0
M  END
> <chembl_id>
CHEMBL781

> <chembl_pref_name>
MAZINDOL

$$$$

     RDKit          2D

 13 12  0  0  0  0  0  0  0  0999 V2000
    5.9542  -17.5292    0.0000 Cl  0  0  0  0  0  0  0  0  0  0  0  0
    5.8958  -18.3792    0.0000 N   0  0  0  0  0  0  0  0  0  0  0  0
    5.2792  -18.0250    0.0000 C   0  0  0  0  0  0  0  0  0  0  0  0
    4.6667  -18.3792    0.0000 C   0  0  0  0  0  0  0  0  0  0  0  0
    4.0542  -18.0250    0.0000 C   0  0  0  0  0  0  0  0  0  0  0  0
    3.4417  -18.3792    0.0000 O   0  0  0  0  0  0  0  0  0  0  0  0
    6.5083  -18.0208    0.0000 C   0  0  0  0  0  0  0  0  0  0  0  0
    6.2417  -18.9917    0.0000 C   0  0  0  0  0  0  0  0  0  0  0  0
    5.5375  -18.9917    0.0000 C   0  0  0  0  0  0  0  0  0  0  0  0
    5.2792  -17.3125    0.0000 C   0  0  0  0  0  0  0  0  0  0  0  0
    4.6667  -16.9583    0.0000 C   0  0  0  0  0  0  0  0  0  0  0  0
    4.0542  -17.3125    0.0000 C   0  0  0  0  0  0  0  0  0  0  0  0
    7.1208  -18.3750    0.0000 C   0  0  0  0  0  0  0  0  0  0  0  0
  3  2  1  0
  4  3  2  0
  5  4  1  0
  6  5  1  0
  7  2  1  0
  8  2  1  0
  9  2  1  0
 10  3  1  0
 11 10  2  0
 12 11  1  0
 13  7  1  0
  5 12  2  0
M  CHG  2   1  -1   2   1
M  END
> <chembl_id>
CHEMBL1128

> <chembl_pref_name>
EDROPHONIUM CHLORIDE

$$$$

     RDKit          2D

 12 12  0  0  0  0  0  0  0  0999 V2000
    6.0667   -5.6208    0.0000 C   0  0  0  0  0  0  0  0  0  0  0  0
    5.4542   -5.2667    0.0000 C   0  0  0  0  0  0  0  0  0  0  0  0
    6.6792   -5.2625    0.0000 N   0  0  0  0  0  0  0  0  0  0  0  0
    4.8417   -5.6250    0.0000 C   0  0  0  0  0  0  0  0  0  0  0  0
    3.6167   -6.3375    0.0000 C   0  0  0  0  0  0  0  0  0  0  0  0
    3.0042   -6.6917    0.0000 Cl  0  0  0  0  0  0  0  0  0  0  0  0
    4.2292   -6.6917    0.0000 C   0  0  0  0  0  0  0  0  0  0  0  0
    3.6167   -5.6250    0.0000 C   0  0  0  0  0  0  0  0  0  0  0  0
    4.8417   -6.3375    0.0000 C   0  0  0  0  0  0  0  0  0  0  0  0
    4.2292   -5.2708    0.0000 C   0  0  0  0  0  0  0  0  0  0  0  0
    6.4167   -6.2292    0.0000 C   0  0  0  0  0  0  0  0  0  0  0  0
    5.7042   -6.2292    0.0000 C   0  0  0  0  0  0  0  0  0  0  0  0
  2  1  1  0
  3  1  1  0
  4  2  1  0
  5  7  1  0
  6  5  1  0
  7  9  2  0
  8 10  1  0
  9  4  1  0
 10  4  2  0
 11  1  1  0
 12  1  1  0
  5  8  2  0
M  END
> <chembl_id>
CHEMBL1201269

> <chembl_pref_name>
CHLORPHENTERMINE

$$$$

     RDKit          2D

 14 14  0  0  0  0  0  0  0  0999 V2000
    0.6875   -1.2542    0.0000 C   0  0  0  0  0  0  0  0  0  0  0  0
    1.8542   -0.5542    0.0000 N   0  0  0  0  0  0  0  0  0  0  0  0
   -0.4958   -0.5542    0.0000 C   0  0  0  0  0  0  0  0  0  0  0  0
    3.0417    1.4750    0.0000 C   0  0  0  0  0  0  0  0  0  0  0  0
    0.6875   -2.6042    0.0000 O   0  0  0  0  0  0  0  0  0  0  0  0
    3.0542    2.7333    0.0000 O   0  0  0  0  0  0  0  0  0  0  0  0
    1.8625    0.7875    0.0000 C   0  0  0  0  0  0  0  0  0  0  0  0
   -1.6750   -1.2667    0.0000 C   0  0  0  0  0  0  0  0  0  0  0  0
   -0.4958    0.7875    0.0000 C   0  0  0  0  0  0  0  0  0  0  0  0
   -2.8833    0.7833    0.0000 C   0  0  0  0  0  0  0  0  0  0  0  0
    4.1917    0.7875    0.0000 O   0  0  0  0  0  0  0  0  0  0  0  0
   -4.0833    1.4625    0.0000 N   0  0  0  0  0  0  0  0  0  0  0  0
   -1.7083    1.4625    0.0000 C   0  0  0  0  0  0  0  0  0  0  0  0
   -2.8833   -0.5792    0.0000 C   0  0  0  0  0  0  0  0  0  0  0  0
  2  1  1  0
  3  1  1  0
  4  7  1  0
  5  1  2  0
  6  4  2  0
  7  2  1  0
  8  3  2  0
  9  3  1  0
 10 13  1  0
 11  4  1  0
 12 10  1  0
 13  9  2  0
 14  8  1  0
 14 10  2  0
M  END
> <chembl_id>
CHEMBL463

> <chembl_pref_name>
AMINOHIPPURIC ACID

$$$$

     RDKit          2D

  4  3  0  0  0  0  0  0  0  0999 V2000
    9.7556   -8.6604    0.0000 S   0  0  0  0  0  0  0  0  0  0  0  0
    9.7465   -7.8301    0.0000 O   0  0  0  0  0  0  0  0  0  0  0  0
   10.4732   -9.0762    0.0000 C   0  0  0  0  0  0  0  0  0  0  0  0
    9.0372   -9.0750    0.0000 C   0  0  0  0  0  0  0  0  0  0  0  0
  2  1  1  0
  3  1  1  0
  4  1  1  0
M  CHG  2   1   1   2  -1
M  END
> <chembl_id>
CHEMBL504

> <chembl_pref_name>
DIMETHYL SULFOXIDE

$$$$

     RDKit          2D

 16 15  0  0  0  0  0  0  0  0999 V2000
    5.1417   -3.4417    0.0000 Cl  0  0  0  0  0  0  0  0  0  0  0  0
    2.2417   -3.3167    0.0000 C   0  0  0  0  0  0  0  0  0  0  0  0
    2.2500   -2.6042    0.0000 C   0  0  0  0  0  0  0  0  0  0  0  0
    2.8542   -3.6750    0.0000 C   0  0  0  0  0  0  0  0  0  0  0  0
    1.6167   -3.6792    0.0000 C   0  0  0  0  0  0  0  0  0  0  0  0
    2.8542   -4.3917    0.0000 C   0  0  0  0  0  0  0  0  0  0  0  0
    2.8792   -2.2542    0.0000 C   0  0  0  0  0  0  0  0  0  0  0  0
    1.6250   -4.3917    0.0000 C   0  0  0  0  0  0  0  0  0  0  0  0
    1.6292   -2.2542    0.0000 O   0  0  0  0  0  0  0  0  0  0  0  0
    3.3625   -2.5167    0.0000 N   0  0  0  0  0  0  0  0  0  0  0  0
    2.2417   -4.7417    0.0000 C   0  0  0  0  0  0  0  0  0  0  0  0
    3.4792   -3.3042    0.0000 O   0  0  0  0  0  0  0  0  0  0  0  0
    0.9792   -4.7417    0.0000 O   0  0  0  0  0  0  0  0  0  0  0  0
    2.8792   -1.5417    0.0000 C   0  0  0  0  0  0  0  0  0  0  0  0
    4.0917   -3.6417    0.0000 C   0  0  0  0  0  0  0  0  0  0  0  0
    0.3625   -4.3667    0.0000 C   0  0  0  0  0  0  0  0  0  0  0  0
  3  2  1  0
  4  2  1  0
  5  2  2  0
  6  4  2  0
  7  3  1  0
  8  5  1  0
  9  3  1  0
 10  7  1  0
 11  8  2  0
 12  4  1  0
 13  8  1  0
 14  7  1  0
 15 12  1  0
 16 13  1  0
 11  6  1  0
M  END
> <chembl_id>
CHEMBL1201103

> <chembl_pref_name>
METHOXAMINE HYDROCHLORIDE

$$$$

     RDKit          2D

 10  9  0  0  1  0  0  0  0  0999 V2000
    1.1917   -6.5625    0.0000 C   0  0  0  0  0  0  0  0  0  0  0  0
    1.1917   -4.4375    0.0000 C   0  0  0  0  0  0  0  0  0  0  0  0
    1.1917   -7.2667    0.0000 O   0  0  0  0  0  0  0  0  0  0  0  0
    0.5792   -6.2042    0.0000 C   0  0  0  0  0  0  0  0  0  0  0  0
    0.5792   -4.0792    0.0000 O   0  0  0  0  0  0  0  0  0  0  0  0
    0.5792   -5.5000    0.0000 C   0  0  0  0  0  0  0  0  0  0  0  0
    1.1917   -5.1417    0.0000 C   0  0  0  0  0  0  0  0  0  0  0  0
    1.8042   -4.0792    0.0000 N   0  0  0  0  0  0  0  0  0  0  0  0
    1.8042   -6.2042    0.0000 O   0  0  0  0  0  0  0  0  0  0  0  0
   -0.0333   -6.5625    0.0000 N   0  0  0  0  0  0  0  0  0  0  0  0
  2  7  1  0
  3  1  2  0
  4  1  1  0
  5  2  2  0
  4  6  1  1
  7  6  1  0
  8  2  1  0
  9  1  1  0
 10  4  1  0
M  END
> <chembl_id>
CHEMBL930

> <chembl_pref_name>
GLUTAMINE

$$$$

     RDKit          2D

 21 23  0  0  0  0  0  0  0  0999 V2000
    5.2326    3.6320    0.0000 C   0  0  0  0  0  0  0  0  0  0  0  0
    5.2326    2.8070    0.0000 N   0  0  0  0  0  0  0  0  0  0  0  0
    5.9471    2.3945    0.0000 C   0  0  0  0  0  0  0  0  0  0  0  0
    4.5181    2.3945    0.0000 C   0  0  0  0  0  0  0  0  0  0  0  0
    4.5181    1.5695    0.0000 C   0  0  0  0  0  0  0  0  0  0  0  0
    3.8037    1.1570    0.0000 C   0  0  0  0  0  0  0  0  0  0  0  0
    3.8037    0.3320    0.0000 C   0  0  0  0  0  0  0  0  0  0  0  0
    4.5470   -0.0260    0.0000 C   0  0  0  0  0  0  0  0  0  0  0  0
    5.1517    0.5352    0.0000 C   0  0  0  0  0  0  0  0  0  0  0  0
    5.9401    0.2920    0.0000 C   0  0  0  0  0  0  0  0  0  0  0  0
    6.1237   -0.5123    0.0000 C   0  0  0  0  0  0  0  0  0  0  0  0
    5.5189   -1.0735    0.0000 C   0  0  0  0  0  0  0  0  0  0  0  0
    4.7305   -0.8303    0.0000 C   0  0  0  0  0  0  0  0  0  0  0  0
    4.2162   -1.4753    0.0000 C   0  0  0  0  0  0  0  0  0  0  0  0
    3.3912   -1.4753    0.0000 O   0  0  0  0  0  0  0  0  0  0  0  0
    2.8768   -0.8303    0.0000 C   0  0  0  0  0  0  0  0  0  0  0  0
    2.0884   -1.0735    0.0000 C   0  0  0  0  0  0  0  0  0  0  0  0
    1.4837   -0.5123    0.0000 C   0  0  0  0  0  0  0  0  0  0  0  0
    1.6673    0.2920    0.0000 C   0  0  0  0  0  0  0  0  0  0  0  0
    2.4556    0.5352    0.0000 C   0  0  0  0  0  0  0  0  0  0  0  0
    3.0604   -0.0260    0.0000 C   0  0  0  0  0  0  0  0  0  0  0  0
  1  2  1  0
  2  3  1  0
  2  4  1  0
  4  5  1  0
  6  5  1  0
  6  7  2  3
  7  8  1  0
  8  9  2  0
  9 10  1  0
 10 11  2  0
 11 12  1  0
 12 13  2  0
  8 13  1  0
 13 14  1  0
 14 15  1  0
 15 16  1  0
 16 17  2  0
 17 18  1  0
 18 19  2  0
 19 20  1  0
 20 21  2  0
  7 21  1  0
 16 21  1  0
M  END
> <chembl_id>
CHEMBL1628227

> <chembl_pref_name>
DOXEPIN

$$$$

     RDKit          2D

 17 19  0  0  0  0  0  0  0  0999 V2000
    4.7167   -5.1667    0.0000 C   0  0  0  0  0  0  0  0  0  0  0  0
    4.7167   -4.4625    0.0000 C   0  0  0  0  0  0  0  0  0  0  0  0
    3.4792   -5.1792    0.0000 N   0  0  0  0  0  0  0  0  0  0  0  0
    2.2417   -5.2125    0.0000 C   0  0  0  0  0  0  0  0  0  0  0  0
    5.3792   -4.2417    0.0000 S   0  0  0  0  0  0  0  0  0  0  0  0
    4.1042   -5.5292    0.0000 C   0  0  0  0  0  0  0  0  0  0  0  0
    2.8667   -5.5500    0.0000 C   0  0  0  0  0  0  0  0  0  0  0  0
    5.7792   -4.8042    0.0000 C   0  0  0  0  0  0  0  0  0  0  0  0
    4.1042   -4.1000    0.0000 C   0  0  0  0  0  0  0  0  0  0  0  0
    5.3792   -5.3875    0.0000 C   0  0  0  0  0  0  0  0  0  0  0  0
    2.2167   -4.5042    0.0000 C   0  0  0  0  0  0  0  0  0  0  0  0
    3.4792   -4.4417    0.0000 C   0  0  0  0  0  0  0  0  0  0  0  0
    2.8417   -4.1250    0.0000 Cl  0  0  0  0  0  0  0  0  0  0  0  0
    1.6500   -5.5875    0.0000 C   0  0  0  0  0  0  0  0  0  0  0  0
    1.5917   -4.1750    0.0000 C   0  0  0  0  0  0  0  0  0  0  0  0
    1.0167   -5.2625    0.0000 C   0  0  0  0  0  0  0  0  0  0  0  0
    0.9917   -4.5542    0.0000 C   0  0  0  0  0  0  0  0  0  0  0  0
  2  1  2  0
  3  6  1  0
  4  7  1  0
  5  2  1  0
  6  1  1  0
  7  3  1  0
  8 10  2  0
  9  2  1  0
 10  1  1  0
 11  4  2  0
 12  3  1  0
 13 11  1  0
 14  4  1  0
 15 11  1  0
 16 14  2  0
 17 16  1  0
  8  5  1  0
 12  9  1  0
 17 15  2  0
M  END
> <chembl_id>
CHEMBL833

> <chembl_pref_name>
TICLOPIDINE

$$$$

     RDKit          2D

 14 13  0  0  0  0  0  0  0  0999 V2000
    1.7750   -1.0292    0.0000 Na  0  0  0  0  0 15  0  0  0  0  0  0
    0.5167   -1.2250    0.0000 N   0  0  0  0  0  0  0  0  0  0  0  0
   -0.6833   -1.2250    0.0000 N   0  0  0  0  0  0  0  0  0  0  0  0
    0.5167   -1.9125    0.0000 C   0  0  0  0  0  0  0  0  0  0  0  0
   -0.0833   -0.8792    0.0000 C   0  0  0  0  0  0  0  0  0  0  0  0
   -0.0833   -2.2542    0.0000 C   0  0  0  0  0  0  0  0  0  0  0  0
   -0.6833   -1.9125    0.0000 C   0  0  0  0  0  0  0  0  0  0  0  0
    1.1167   -2.2542    0.0000 O   0  0  0  0  0  0  0  0  0  0  0  0
   -1.2833   -2.2667    0.0000 O   0  0  0  0  0  0  0  0  0  0  0  0
   -0.0833   -0.1917    0.0000 O   0  0  0  0  0  0  0  0  0  0  0  0
    0.4875   -2.6125    0.0000 C   0  0  0  0  0  0  0  0  0  0  0  0
   -0.6583   -2.6042    0.0000 C   0  0  0  0  0  0  0  0  0  0  0  0
    0.4875   -3.2417    0.0000 C   0  0  0  0  0  0  0  0  0  0  0  0
   -0.6583   -3.2417    0.0000 C   0  0  0  0  0  0  0  0  0  0  0  0
  3  5  1  0
  4  2  1  0
  5  2  1  0
  6  4  1  0
  7  3  1  0
  8  4  2  0
  9  7  2  0
 10  5  2  0
 11  6  1  0
 12  6  1  0
 13 11  1  0
 14 12  1  0
  6  7  1  0
M  CHG  2   1   1   2  -1
M  END
> <chembl_id>
CHEMBL2105904

> <chembl_pref_name>
BARBITAL SODIUM

$$$$

     RDKit          2D

 17 18  0  0  1  0  0  0  0  0999 V2000
    5.5667   -5.0417    0.0000 C   0  0  0  0  0  0  0  0  0  0  0  0
    6.8042   -5.0542    0.0000 C   0  0  0  0  0  0  0  0  0  0  0  0
    4.9500   -5.4042    0.0000 C   0  0  0  0  0  0  0  0  0  0  0  0
    6.1792   -5.4042    0.0000 C   0  0  0  0  0  0  0  0  0  0  0  0
    4.3417   -5.0500    0.0000 C   0  0  0  0  0  0  0  0  0  0  0  0
    4.3417   -4.3500    0.0000 C   0  0  0  0  0  0  0  0  0  0  0  0
    5.5667   -4.3417    0.0000 C   0  0  0  0  0  0  0  0  0  0  0  0
    6.8292   -4.3417    0.0000 O   0  0  0  0  0  0  0  0  0  0  0  0
    3.7167   -3.9917    0.0000 C   0  0  0  0  0  0  0  0  0  0  0  0
    4.9417   -3.9875    0.0000 C   0  0  0  0  0  0  0  0  0  0  0  0
    3.7167   -5.4042    0.0000 C   0  0  0  0  0  0  0  0  0  0  0  0
    3.1042   -4.3500    0.0000 C   0  0  0  0  0  0  0  0  0  0  0  0
    7.4125   -5.4167    0.0000 O   0  0  0  0  0  0  0  0  0  0  0  0
    3.1042   -5.0542    0.0000 C   0  0  0  0  0  0  0  0  0  0  0  0
    2.4917   -3.9875    0.0000 O   0  0  0  0  0  0  0  0  0  0  0  0
    6.1875   -6.1125    0.0000 C   0  0  0  0  0  0  0  0  0  0  0  0
    1.8667   -4.3375    0.0000 C   0  0  0  0  0  0  0  0  0  0  0  0
  2  4  1  0
  3  1  1  0
  4  1  1  0
  5  3  2  0
  6 10  2  0
  7  1  2  0
  8  2  2  0
  9  6  1  0
 10  7  1  0
 11  5  1  0
 12  9  2  0
 13  2  1  0
 14 11  2  0
 15 12  1  0
  4 16  1  1
 17 15  1  0
  6  5  1  0
 12 14  1  0
M  END
> <chembl_id>
CHEMBL154

> <chembl_pref_name>
NAPROXEN

$$$$

     RDKit          2D

 13 12  0  0  0  0  0  0  0  0999 V2000
    5.0292   -5.5167    0.0000 C   0  0  0  0  0  0  0  0  0  0  0  0
    5.6417   -5.8750    0.0000 C   0  0  0  0  0  0  0  0  0  0  0  0
    4.4167   -5.8750    0.0000 C   0  0  0  0  0  0  0  0  0  0  0  0
    4.6667   -4.9042    0.0000 C   0  0  0  0  0  0  0  0  0  0  0  0
    4.4125   -6.5792    0.0000 C   0  0  0  0  0  0  0  0  0  0  0  0
    6.2542   -5.5167    0.0000 C   0  0  0  0  0  0  0  0  0  0  0  0
    3.9625   -4.9042    0.0000 O   0  0  0  0  0  0  0  0  0  0  0  0
    6.2542   -4.8125    0.0000 O   0  0  0  0  0  0  0  0  0  0  0  0
    5.0167   -6.9417    0.0000 O   0  0  0  0  0  0  0  0  0  0  0  0
    5.3792   -4.9042    0.0000 O   0  0  0  0  0  0  0  0  0  0  0  0
    5.0167   -4.2875    0.0000 O   0  0  0  0  0  0  0  0  0  0  0  0
    6.8667   -5.8750    0.0000 O   0  0  0  0  0  0  0  0  0  0  0  0
    3.7917   -6.9292    0.0000 O   0  0  0  0  0  0  0  0  0  0  0  0
  2  1  1  0
  3  1  1  0
  4  1  1  0
  5  3  1  0
  6  2  1  0
  7  4  2  0
  8  6  2  0
  9  5  2  0
 10  1  1  0
 11  4  1  0
 12  6  1  0
 13  5  1  0
M  END
> <chembl_id>
CHEMBL1261

> <chembl_pref_name>
CITRIC ACID

$$$$

     RDKit          2D

 17 18  0  0  0  0  0  0  0  0999 V2000
   -0.3583    0.1208    0.0000 C   0  0  0  0  0  0  0  0  0  0  0  0
    1.5250    0.1000    0.0000 N   0  0  0  0  0  0  0  0  0  0  0  0
   -1.3208   -0.4167    0.0000 C   0  0  0  0  0  0  0  0  0  0  0  0
    0.6167   -0.3167    0.0000 C   0  0  0  0  0  0  0  0  0  0  0  0
   -2.2833    0.1625    0.0000 C   0  0  0  0  0  0  0  0  0  0  0  0
   -3.2458   -0.4167    0.0000 C   0  0  0  0  0  0  0  0  0  0  0  0
   -4.2083    0.1208    0.0000 O   0  0  0  0  0  0  0  0  0  0  0  0
   -0.3458   -0.9792    0.0000 C   0  0  0  0  0  0  0  0  0  0  0  0
   -0.6208    1.1750    0.0000 C   0  0  0  0  0  0  0  0  0  0  0  0
    2.4000   -0.4375    0.0000 C   0  0  0  0  0  0  0  0  0  0  0  0
    1.8500    1.2000    0.0000 C   0  0  0  0  0  0  0  0  0  0  0  0
   -1.3208   -1.5167    0.0000 C   0  0  0  0  0  0  0  0  0  0  0  0
   -2.2833   -2.0875    0.0000 C   0  0  0  0  0  0  0  0  0  0  0  0
   -3.2458   -1.5167    0.0000 C   0  0  0  0  0  0  0  0  0  0  0  0
    0.5750   -1.5542    0.0000 C   0  0  0  0  0  0  0  0  0  0  0  0
    0.0292    2.0958    0.0000 C   0  0  0  0  0  0  0  0  0  0  0  0
    1.1917    2.0958    0.0000 C   0  0  0  0  0  0  0  0  0  0  0  0
  2  4  1  0
  3  1  1  0
  4  1  1  0
  5  3  1  0
  6  5  2  0
  7  6  1  0
  8  1  1  0
  9  1  1  0
 10  2  1  0
 11  2  1  0
 12  3  2  0
 13 12  1  0
 14 13  2  0
 15  8  1  0
 16  9  1  0
 17 16  1  0
 11 17  1  0
  6 14  1  0
M  END
> <chembl_id>
CHEMBL314437

> <chembl_pref_name>
MEPTAZINOL

$$$$

     RDKit          2D

 13 13  0  0  1  0  0  0  0  0999 V2000
    4.7042   -4.4750    0.0000 C   0  0  0  0  0  0  0  0  0  0  0  0
    4.6917   -5.1792    0.0000 C   0  0  0  0  0  0  0  0  0  0  0  0
    4.0625   -5.5292    0.0000 C   0  0  0  0  0  0  0  0  0  0  0  0
    5.3250   -4.1333    0.0000 C   0  0  0  0  0  0  0  0  0  0  0  0
    3.4542   -5.1625    0.0000 C   0  0  0  0  0  0  0  0  0  0  0  0
    4.1000   -4.1042    0.0000 C   0  0  0  0  0  0  0  0  0  0  0  0
    3.4667   -4.4458    0.0000 C   0  0  0  0  0  0  0  0  0  0  0  0
    5.9250   -4.5000    0.0000 C   0  0  0  0  0  0  0  0  0  0  0  0
    4.0417   -6.2417    0.0000 O   0  0  0  0  0  0  0  0  0  0  0  0
    5.9042   -5.2042    0.0000 N   0  0  0  0  0  0  0  0  0  0  0  0
    5.3375   -3.4250    0.0000 O   0  0  0  0  0  0  0  0  0  0  0  0
    2.8375   -5.5000    0.0000 O   0  0  0  0  0  0  0  0  0  0  0  0
    6.5417   -4.1625    0.0000 C   0  0  0  0  0  0  0  0  0  0  0  0
  2  1  2  0
  3  2  1  0
  4  1  1  0
  5  7  1  0
  6  1  1  0
  7  6  2  0
  8  4  1  0
  9  3  1  0
  8 10  1  6
  4 11  1  1
 12  5  1  0
 13  8  1  0
  5  3  2  0
M  END
> <chembl_id>
CHEMBL677

> <chembl_pref_name>
LEVONORDEFRIN

$$$$

     RDKit          2D

 19 21  0  0  1  0  0  0  0  0999 V2000
   -0.1125   -5.0208    0.0000 C   0  0  0  0  0  0  0  0  0  0  0  0
   -0.7250   -5.3792    0.0000 C   0  0  0  0  0  0  0  0  0  0  0  0
    0.5042   -5.3792    0.0000 C   0  0  0  0  0  0  0  0  0  0  0  0
   -0.7250   -6.0917    0.0000 C   0  0  0  0  0  0  0  0  0  0  0  0
    0.5083   -6.0958    0.0000 C   0  0  0  0  0  0  0  0  0  0  0  0
   -0.1125   -6.4458    0.0000 C   0  0  0  0  0  0  0  0  0  0  0  0
   -1.3375   -5.0250    0.0000 C   0  0  0  0  0  0  0  0  0  0  0  0
   -1.3375   -6.4458    0.0000 C   0  0  0  0  0  0  0  0  0  0  0  0
    1.1167   -5.0167    0.0000 N   0  0  0  0  0  0  0  0  0  0  0  0
   -1.9500   -5.3792    0.0000 C   0  0  0  0  0  0  0  0  0  0  0  0
   -0.4708   -4.4042    0.0000 C   0  0  0  0  0  0  0  0  0  0  0  0
    0.2375   -4.4042    0.0000 C   0  0  0  0  0  0  0  0  0  0  0  0
   -1.9500   -6.0917    0.0000 C   0  0  0  0  0  0  0  0  0  0  0  0
   -2.5625   -5.0250    0.0000 O   0  0  0  0  0  0  0  0  0  0  0  0
    1.2167   -6.0958    0.0000 C   0  0  0  0  0  0  0  0  0  0  0  0
    1.2167   -4.3833    0.0000 C   0  0  0  0  0  0  0  0  0  0  0  0
    1.7208   -5.5917    0.0000 C   0  0  0  0  0  0  0  0  0  0  0  0
    1.7208   -4.8833    0.0000 C   0  0  0  0  0  0  0  0  0  0  0  0
    0.5000   -6.8000    0.0000 H   0  0  0  0  0  0  0  0  0  0  0  0
  2  1  1  0
  3  1  1  0
  4  2  1  0
  5  3  1  0
  6  5  1  0
  7  2  2  0
  8  4  2  0
  3  9  1  1
 10  7  1  0
  1 11  1  6
 12  1  1  0
 13  8  1  0
 14 10  1  0
 15  5  1  0
 16 12  1  0
 17 18  1  0
 18 16  1  0
  5 19  1  6
  6  4  1  0
 17 15  1  0
 13 10  2  0
M  END
> <chembl_id>
CHEMBL1685

> <chembl_pref_name>
DEZOCINE

$$$$

     RDKit          2D

 14 12  0  0  0  0  0  0  0  0999 V2000
   -4.1958    1.5125    0.0000 K   0  0  0  0  0 15  0  0  0  0  0  0
   -1.0708    0.2375    0.0000 C   0  0  0  0  0  0  0  0  0  0  0  0
    0.0000   -0.3792    0.0000 C   0  0  0  0  0  0  0  0  0  0  0  0
    1.0625    0.2458    0.0000 C   0  0  0  0  0  0  0  0  0  0  0  0
   -2.1333   -0.3792    0.0000 C   0  0  0  0  0  0  0  0  0  0  0  0
    2.1250   -0.3667    0.0000 C   0  0  0  0  0  0  0  0  0  0  0  0
   -3.2000    0.2375    0.0000 O   0  0  0  0  0  0  0  0  0  0  0  0
   -2.1333   -1.6125    0.0000 O   0  0  0  0  0  0  0  0  0  0  0  0
   -1.6958    1.3000    0.0000 O   0  0  0  0  0  0  0  0  0  0  0  0
   -0.6208   -1.4375    0.0000 O   0  0  0  0  0  0  0  0  0  0  0  0
    0.7375    1.4375    0.0000 O   0  0  0  0  0  0  0  0  0  0  0  0
    2.7375   -1.4292    0.0000 O   0  0  0  0  0  0  0  0  0  0  0  0
    4.2542   -0.3625    0.0000 O   0  0  0  0  0  0  0  0  0  0  0  0
    3.1792    0.2500    0.0000 C   0  0  0  0  0  0  0  0  0  0  0  0
  3  2  1  0
  4  3  1  0
  5  2  1  0
  6  4  1  0
  7  5  1  0
  8  5  2  0
  2  9  1  6
  3 10  1  6
  4 11  1  6
  6 12  1  1
 13 14  1  0
 14  6  1  0
M  CHG  2   1   1   7  -1
M  END
> <chembl_id>
CHEMBL2106978

> <chembl_pref_name>
POTASSIUM GLUCONATE

$$$$

     RDKit          2D

 12 10  0  0  0  0  0  0  0  0999 V2000
    0.0000    1.4458    0.0000 Cl  0  0  0  0  0  0  0  0  0  0  0  0
    2.1417   -2.7875    0.0000 N   0  0  0  0  0  0  0  0  0  0  0  0
    1.0667   -1.8375    0.0000 C   0  0  0  0  0  0  0  0  0  0  0  0
   -2.7083   -1.8167    0.0000 N   0  0  0  0  0  0  0  0  0  0  0  0
   -0.2833   -2.3042    0.0000 C   0  0  0  0  0  0  0  0  0  0  0  0
    3.5000   -2.3292    0.0000 C   0  0  0  0  0  0  0  0  0  0  0  0
   -1.3500   -1.3542    0.0000 C   0  0  0  0  0  0  0  0  0  0  0  0
   -3.7875   -0.8667    0.0000 C   0  0  0  0  0  0  0  0  0  0  0  0
    1.3417   -0.4292    0.0000 C   0  0  0  0  0  0  0  0  0  0  0  0
    3.7792   -0.9167    0.0000 C   0  0  0  0  0  0  0  0  0  0  0  0
    2.7000    0.0125    0.0000 C   0  0  0  0  0  0  0  0  0  0  0  0
    0.0000    2.8833    0.0000 Cl  0  0  0  0  0  0  0  0  0  0  0  0
  3  2  2  0
  4  7  1  0
  5  3  1  0
  6  2  1  0
  7  5  1  0
  8  4  1  0
  9  3  1  0
 10  6  2  0
 11 10  1  0
  9 11  2  0
M  END
> <chembl_id>
CHEMBL1446813

> <chembl_pref_name>
BETAHISTINE HYDROCHLORIDE

$$$$

     RDKit          2D

 19 19  0  0  0  0  0  0  0  0999 V2000
   -3.3208   -1.7000    0.0000 C   0  0  0  0  0  0  0  0  0  0  0  0
   -2.4583   -2.1750    0.0000 N   0  0  0  0  0  0  0  0  0  0  0  0
   -4.1583   -2.1875    0.0000 O   0  0  0  0  0  0  0  0  0  0  0  0
    2.6542   -0.1750    0.0000 N   0  0  0  0  0  0  0  0  0  0  0  0
   -1.6000   -1.6625    0.0000 C   0  0  0  0  0  0  0  0  0  0  0  0
    0.9667   -0.1750    0.0000 O   0  0  0  0  0  0  0  0  0  0  0  0
    1.8000    1.2958    0.0000 C   0  0  0  0  0  0  0  0  0  0  0  0
    0.1000   -0.6792    0.0000 C   0  0  0  0  0  0  0  0  0  0  0  0
    2.6542    0.8083    0.0000 C   0  0  0  0  0  0  0  0  0  0  0  0
    0.9667    0.8083    0.0000 C   0  0  0  0  0  0  0  0  0  0  0  0
   -0.7500   -2.1542    0.0000 C   0  0  0  0  0  0  0  0  0  0  0  0
   -1.6000   -0.6792    0.0000 C   0  0  0  0  0  0  0  0  0  0  0  0
   -0.7500   -0.1917    0.0000 C   0  0  0  0  0  0  0  0  0  0  0  0
    0.1000   -1.6625    0.0000 C   0  0  0  0  0  0  0  0  0  0  0  0
    1.8000    2.2833    0.0000 O   0  0  0  0  0  0  0  0  0  0  0  0
    3.4917   -0.6667    0.0000 C   0  0  0  0  0  0  0  0  0  0  0  0
   -3.3208   -0.7000    0.0000 C   0  0  0  0  0  0  0  0  0  0  0  0
    4.3417   -0.1750    0.0000 C   0  0  0  0  0  0  0  0  0  0  0  0
    3.4917   -1.6625    0.0000 C   0  0  0  0  0  0  0  0  0  0  0  0
  2  1  1  0
  3  1  2  0
  4  9  1  0
  5  2  1  0
  6  8  1  0
  7 10  1  0
  8 13  2  0
  9  7  1  0
 10  6  1  0
 11  5  1  0
 12  5  2  0
 13 12  1  0
 14 11  2  0
 15  7  1  0
 16  4  1  0
 17  1  1  0
 18 16  1  0
 19 16  1  0
  8 14  1  0
M  END
> <chembl_id>
CHEMBL6995

> <chembl_pref_name>
PRACTOLOL

$$$$

     RDKit          2D

 12 10  0  0  0  0  0  0  0  0999 V2000
   -0.2500   -2.9917    0.0000 Cl  0  0  0  0  0  0  0  0  0  0  0  0
   -0.1125   -3.8375    0.0000 N   0  0  0  0  0  0  0  0  0  0  0  0
    2.3417   -3.8375    0.0000 C   0  0  0  0  0  0  0  0  0  0  0  0
    1.7250   -3.4792    0.0000 O   0  0  0  0  0  0  0  0  0  0  0  0
    2.3417   -4.5417    0.0000 O   0  0  0  0  0  0  0  0  0  0  0  0
    0.5000   -3.4792    0.0000 C   0  0  0  0  0  0  0  0  0  0  0  0
    1.1125   -3.8375    0.0000 C   0  0  0  0  0  0  0  0  0  0  0  0
   -0.7292   -3.4792    0.0000 C   0  0  0  0  0  0  0  0  0  0  0  0
    0.2375   -4.4458    0.0000 C   0  0  0  0  0  0  0  0  0  0  0  0
   -0.4708   -4.4458    0.0000 C   0  0  0  0  0  0  0  0  0  0  0  0
    2.9542   -3.4792    0.0000 C   0  0  0  0  0  0  0  0  0  0  0  0
    1.1125   -4.5417    0.0000 C   0  0  0  0  0  0  0  0  0  0  0  0
  3  4  1  0
  4  7  1  0
  5  3  2  0
  6  2  1  0
  7  6  1  0
  8  2  1  0
  9  2  1  0
 10  2  1  0
 11  3  1  0
 12  7  1  0
M  CHG  2   1  -1   2   1
M  END
> <chembl_id>
CHEMBL1200764

> <chembl_pref_name>
METHACHOLINE CHLORIDE

$$$$

     RDKit          2D

 15 16  0  0  1  0  0  0  0  0999 V2000
    4.1638   -9.2577    0.0000 C   0  0  0  0  0  0  0  0  0  0  0  0
    4.7471   -9.8412    0.0000 C   0  0  0  0  0  0  0  0  0  0  0  0
    4.5336  -10.6381    0.0000 C   0  0  0  0  0  0  0  0  0  0  0  0
    5.1170  -11.2214    0.0000 O   0  0  0  0  0  0  0  0  0  0  0  0
    5.9139  -11.0079    0.0000 C   0  0  0  0  0  0  0  0  0  0  0  0
    6.1274  -10.2110    0.0000 C   0  0  0  0  0  0  0  0  0  0  0  0
    5.5440   -9.6277    0.0000 N   0  0  0  0  0  0  0  0  0  0  0  0
    5.7576   -8.8308    0.0000 C   0  0  0  0  0  0  0  0  0  0  0  0
    3.7367  -10.8515    0.0000 C   0  0  0  0  0  0  0  0  0  0  0  0
    3.1534  -10.2681    0.0000 C   0  0  0  0  0  0  0  0  0  0  0  0
    2.3565  -10.4817    0.0000 C   0  0  0  0  0  0  0  0  0  0  0  0
    2.1429  -11.2785    0.0000 C   0  0  0  0  0  0  0  0  0  0  0  0
    2.7262  -11.8619    0.0000 C   0  0  0  0  0  0  0  0  0  0  0  0
    3.5231  -11.6484    0.0000 C   0  0  0  0  0  0  0  0  0  0  0  0
    3.8191  -10.2255    0.0000 H   0  0  0  0  0  0  0  0  0  0  0  0
  2  1  1  6
  2  3  1  0
  3  4  1  0
  4  5  1  0
  5  6  1  0
  6  7  1  0
  2  7  1  0
  7  8  1  0
  3  9  1  0
  9 10  2  0
 10 11  1  0
 11 12  2  0
 12 13  1  0
 13 14  2  0
  9 14  1  0
  3 15  1  6
M  END
> <chembl_id>
CHEMBL1615439

> <chembl_pref_name>
PHENDIMETRAZINE

$$$$

     RDKit          2D

 17 18  0  0  0  0  0  0  0  0999 V2000
   -1.1216   -0.7811    0.0000 C   0  0  0  0  0  0  0  0  0  0  0  0
   -1.1216    0.0667    0.0000 C   0  0  0  0  0  0  0  0  0  0  0  0
   -1.8492   -1.1816    0.0000 N   0  0  0  0  0  0  0  0  0  0  0  0
   -2.5736    0.0467    0.0000 N   0  0  0  0  0  0  0  0  0  0  0  0
   -2.5736   -0.7544    0.0000 C   0  0  0  0  0  0  0  0  0  0  0  0
   -1.8492    0.4673    0.0000 C   0  0  0  0  0  0  0  0  0  0  0  0
   -0.3405   -1.0314    0.0000 N   0  0  0  0  0  0  0  0  0  0  0  0
   -0.3405    0.3204    0.0000 N   0  0  0  0  0  0  0  0  0  0  0  0
    0.1302   -0.3538    0.0000 C   0  0  0  0  0  0  0  0  0  0  0  0
   -0.0667    1.1216    0.0000 C   0  0  0  0  0  0  0  0  0  0  0  0
   -3.3313   -1.1550    0.0000 O   0  0  0  0  0  0  0  0  0  0  0  0
   -1.8592    1.2484    0.0000 O   0  0  0  0  0  0  0  0  0  0  0  0
    0.7544    1.2984    0.0000 C   0  0  0  0  0  0  0  0  0  0  0  0
    1.0048    2.0995    0.0000 O   0  0  0  0  0  0  0  0  0  0  0  0
   -1.8592   -1.9861    0.0000 C   0  0  0  0  0  0  0  0  0  0  0  0
   -3.3313    0.4673    0.0000 C   0  0  0  0  0  0  0  0  0  0  0  0
    1.3118    0.6976    0.0000 O   0  0  0  0  0  0  0  0  0  0  0  0
  2  1  2  0
  3  1  1  0
  4  5  1  0
  5  3  1  0
  6  2  1  0
  7  1  1  0
  8  2  1  0
  9  7  2  0
 10  8  1  0
 11  5  2  0
 12  6  2  0
 13 10  1  0
 14 13  2  0
 15  3  1  0
 16  4  1  0
 17 13  1  0
  6  4  1  0
  8  9  1  0
M  END
> <chembl_id>
CHEMBL70246

> <chembl_pref_name>
ACEFYLLINE

$$$$

     RDKit          2D

 19 19  0  0  0  0  0  0  0  0999 V2000
    0.4167    1.7708    0.0000 C   0  0  0  0  0  0  0  0  0  0  0  0
   -0.3958    1.2958    0.0000 C   0  0  0  0  0  0  0  0  0  0  0  0
    0.4167    2.7083    0.0000 O   0  0  0  0  0  0  0  0  0  0  0  0
   -1.1708    1.7458    0.0000 C   0  0  0  0  0  0  0  0  0  0  0  0
   -0.3958    0.3875    0.0000 C   0  0  0  0  0  0  0  0  0  0  0  0
    1.1917    1.2958    0.0000 O   0  0  0  0  0  0  0  0  0  0  0  0
   -1.9833    0.3875    0.0000 C   0  0  0  0  0  0  0  0  0  0  0  0
    3.5625    1.7708    0.0000 N   0  0  0  0  0  0  0  0  0  0  0  0
   -2.7833   -0.0625    0.0000 N   0  0  0  0  0  0  0  0  0  0  0  0
   -1.9833    1.2958    0.0000 C   0  0  0  0  0  0  0  0  0  0  0  0
   -1.1708   -0.0625    0.0000 C   0  0  0  0  0  0  0  0  0  0  0  0
    1.9792    1.7708    0.0000 C   0  0  0  0  0  0  0  0  0  0  0  0
    2.7542    1.2958    0.0000 C   0  0  0  0  0  0  0  0  0  0  0  0
   -2.7833   -0.9917    0.0000 C   0  0  0  0  0  0  0  0  0  0  0  0
    3.5625    2.6833    0.0000 C   0  0  0  0  0  0  0  0  0  0  0  0
    4.3417    1.2958    0.0000 C   0  0  0  0  0  0  0  0  0  0  0  0
   -3.5625   -1.4500    0.0000 C   0  0  0  0  0  0  0  0  0  0  0  0
   -3.5625   -2.3542    0.0000 C   0  0  0  0  0  0  0  0  0  0  0  0
   -4.3458   -2.8042    0.0000 C   0  0  0  0  0  0  0  0  0  0  0  0
  2  1  1  0
  3  1  2  0
  4  2  1  0
  5  2  2  0
  6  1  1  0
  7 11  2  0
  8 13  1  0
  9  7  1  0
 10  4  2  0
 11  5  1  0
 12  6  1  0
 13 12  1  0
 14  9  1  0
 15  8  1  0
 16  8  1  0
 17 14  1  0
 18 17  1  0
 19 18  1  0
 10  7  1  0
M  END
> <chembl_id>
CHEMBL698

> <chembl_pref_name>
TETRACAINE

$$$$

     RDKit          2D

 16 16  0  0  0  0  0  0  0  0999 V2000
    5.6792   -5.4042    0.0000 Cl  0  0  0  0  0  0  0  0  0  0  0  0
    3.7917   -4.8417    0.0000 C   0  0  0  0  0  0  0  0  0  0  0  0
    2.5750   -4.8417    0.0000 C   0  0  0  0  0  0  0  0  0  0  0  0
    2.0000   -4.4250    0.0000 N   0  0  0  0  0  0  0  0  0  0  0  0
    4.4042   -4.4917    0.0000 C   0  0  0  0  0  0  0  0  0  0  0  0
    3.1792   -4.4917    0.0000 C   0  0  0  0  0  0  0  0  0  0  0  0
    1.6417   -5.5167    0.0000 N   0  0  0  0  0  0  0  0  0  0  0  0
    1.4417   -4.8417    0.0000 C   0  0  0  0  0  0  0  0  0  0  0  0
    2.3542   -5.5167    0.0000 C   0  0  0  0  0  0  0  0  0  0  0  0
    5.0250   -4.8417    0.0000 C   0  0  0  0  0  0  0  0  0  0  0  0
    3.7917   -5.5625    0.0000 C   0  0  0  0  0  0  0  0  0  0  0  0
    4.4042   -3.7792    0.0000 C   0  0  0  0  0  0  0  0  0  0  0  0
    3.1792   -3.7667    0.0000 C   0  0  0  0  0  0  0  0  0  0  0  0
    4.4042   -5.9167    0.0000 C   0  0  0  0  0  0  0  0  0  0  0  0
    5.0250   -5.5625    0.0000 C   0  0  0  0  0  0  0  0  0  0  0  0
    5.6417   -4.4917    0.0000 C   0  0  0  0  0  0  0  0  0  0  0  0
  3  6  1  0
  4  3  1  0
  5  2  2  0
  6  2  1  0
  7  9  1  0
  8  4  2  0
  9  3  2  0
 10  5  1  0
 11  2  1  0
 12  5  1  0
  6 13  1  1
 14 11  2  0
 15 14  1  0
 16 10  1  0
 15 10  2  0
  8  7  1  0
M  END
> <chembl_id>
CHEMBL2106195

> <chembl_pref_name>
DEXMEDETOMIDINE HYDROCHLORIDE

$$$$

     RDKit          2D

 16 16  0  0  0  0  0  0  0  0999 V2000
   -3.3333    0.0000    0.0000 C   0  0  0  0  0  0  0  0  0  0  0  0
   -2.3583   -0.5167    0.0000 C   0  0  0  0  0  0  0  0  0  0  0  0
   -1.4083    0.0500    0.0000 C   0  0  0  0  0  0  0  0  0  0  0  0
   -0.4333   -0.4625    0.0000 C   0  0  0  0  0  0  0  0  0  0  0  0
   -4.0958   -0.8000    0.0000 F   0  0  0  0  0  0  0  0  0  0  0  0
   -2.7333    0.9208    0.0000 F   0  0  0  0  0  0  0  0  0  0  0  0
   -4.2083    0.6708    0.0000 F   0  0  0  0  0  0  0  0  0  0  0  0
    0.4917    0.1125    0.0000 C   0  0  0  0  0  0  0  0  0  0  0  0
    2.4125    0.1708    0.0000 N   0  0  0  0  0  0  0  0  0  0  0  0
   -2.3208   -1.6292    0.0000 C   0  0  0  0  0  0  0  0  0  0  0  0
    1.4667   -0.4000    0.0000 C   0  0  0  0  0  0  0  0  0  0  0  0
   -1.3458   -2.1542    0.0000 C   0  0  0  0  0  0  0  0  0  0  0  0
   -0.4000   -1.5667    0.0000 C   0  0  0  0  0  0  0  0  0  0  0  0
    3.3917   -0.3375    0.0000 C   0  0  0  0  0  0  0  0  0  0  0  0
    1.5042   -1.5042    0.0000 C   0  0  0  0  0  0  0  0  0  0  0  0
    4.3417    0.2375    0.0000 C   0  0  0  0  0  0  0  0  0  0  0  0
  2  1  1  0
  3  2  1  0
  4  3  2  0
  5  1  1  0
  6  1  1  0
  7  1  1  0
  8  4  1  0
  9 11  1  0
 10  2  2  0
 11  8  1  0
 12 10  1  0
 13 12  2  0
 14  9  1  0
 15 11  1  0
 16 14  1  0
  4 13  1  0
M  END
> <chembl_id>
CHEMBL87493

> <chembl_pref_name>
FENFLURAMINE

$$$$

     RDKit          2D

 16 17  0  0  0  0  0  0  0  0999 V2000
   -1.7250   -7.3000    0.0000 C   0  0  0  0  0  0  0  0  0  0  0  0
   -1.7250   -8.1292    0.0000 C   0  0  0  0  0  0  0  0  0  0  0  0
   -1.0088   -8.5417    0.0000 N   0  0  0  0  0  0  0  0  0  0  0  0
   -0.2926   -8.1292    0.0000 C   0  0  0  0  0  0  0  0  0  0  0  0
   -0.2926   -7.3000    0.0000 N   0  0  0  0  0  0  0  0  0  0  0  0
   -1.0088   -6.8833    0.0000 C   0  0  0  0  0  0  0  0  0  0  0  0
    0.4212   -8.5469    0.0000 O   0  0  0  0  0  0  0  0  0  0  0  0
   -2.4448   -6.8896    0.0000 Cl  0  0  0  0  0  0  0  0  0  0  0  0
   -1.0088   -6.0542    0.0000 O   0  0  0  0  0  0  0  0  0  0  0  0
   -2.4393   -8.5420    0.0000 C   0  0  0  0  0  0  0  0  0  0  0  0
   -3.1539   -8.1299    0.0000 N   0  0  0  0  0  0  0  0  0  0  0  0
   -3.2419   -7.3053    0.0000 C   0  0  0  0  0  0  0  0  0  0  0  0
   -4.0489   -7.1342    0.0000 C   0  0  0  0  0  0  0  0  0  0  0  0
   -4.4611   -7.8489    0.0000 C   0  0  0  0  0  0  0  0  0  0  0  0
   -3.9087   -8.4616    0.0000 C   0  0  0  0  0  0  0  0  0  0  0  0
   -4.0818   -9.2682    0.0000 N   0  0  0  0  0  0  0  0  0  0  0  0
  1  2  2  0
  6  9  2  0
  1  6  1  0
  2 10  1  0
  2  3  1  0
 10 11  1  0
 11 12  1  0
  3  4  1  0
  4  5  1  0
  5  6  1  0
 12 13  1  0
 13 14  1  0
 14 15  1  0
 15 11  1  0
  4  7  2  0
 15 16  2  0
  1  8  1  0
M  END
> <chembl_id>
CHEMBL235668

> <chembl_pref_name>
TIPIRACIL

$$$$

     RDKit          2D

 20 19  0  0  0  0  0  0  0  0999 V2000
    1.5917    0.2333    0.0000 C   0  0  0  0  0  0  0  0  0  0  0  0
    2.2417   -0.8125    0.0000 N   0  0  0  0  0  0  0  0  0  0  0  0
    0.9917   -0.1417    0.0000 C   0  0  0  0  0  0  0  0  0  0  0  0
    2.2167   -0.1042    0.0000 C   0  0  0  0  0  0  0  0  0  0  0  0
    0.3792    0.2000    0.0000 C   0  0  0  0  0  0  0  0  0  0  0  0
    0.9917   -0.8500    0.0000 C   0  0  0  0  0  0  0  0  0  0  0  0
    2.8250    0.2750    0.0000 C   0  0  0  0  0  0  0  0  0  0  0  0
   -0.2333   -0.1667    0.0000 C   0  0  0  0  0  0  0  0  0  0  0  0
    0.3917   -1.2167    0.0000 C   0  0  0  0  0  0  0  0  0  0  0  0
   -0.2458   -0.8792    0.0000 C   0  0  0  0  0  0  0  0  0  0  0  0
    3.0125   -2.4542    0.0000 C   0  0  0  0  0  0  0  0  0  0  0  0
   -0.0583   -2.8042    0.0000 C   0  0  0  0  0  0  0  0  0  0  0  0
    3.0125   -1.7417    0.0000 O   0  0  0  0  0  0  0  0  0  0  0  0
   -0.0583   -3.5167    0.0000 O   0  0  0  0  0  0  0  0  0  0  0  0
   -0.6708   -2.4542    0.0000 O   0  0  0  0  0  0  0  0  0  0  0  0
    3.6250   -2.8042    0.0000 O   0  0  0  0  0  0  0  0  0  0  0  0
    0.5542   -2.4542    0.0000 C   0  0  0  0  0  0  0  0  0  0  0  0
    2.4000   -2.8042    0.0000 C   0  0  0  0  0  0  0  0  0  0  0  0
    1.7792   -2.4542    0.0000 C   0  0  0  0  0  0  0  0  0  0  0  0
    1.1667   -2.8042    0.0000 C   0  0  0  0  0  0  0  0  0  0  0  0
  4  2  1  6
  3  1  1  0
  4  1  1  0
  5  3  2  0
  6  3  1  0
  7  4  1  0
  8  5  1  0
  9  6  2  0
 10  9  1  0
 10  8  2  0
 12 17  1  0
 13 11  2  0
 14 12  2  0
 15 12  1  0
 16 11  1  0
 17 20  1  0
 18 11  1  0
 19 18  1  0
 20 19  1  0
M  END
> <chembl_id>
CHEMBL1200782

> <chembl_pref_name>
DEXTROAMPHETAMINE ADIPATE

$$$$

     RDKit          2D

  2  0  0  0  0  0  0  0  0  0999 V2000
   -0.5708   -1.1542    0.0000 Na  0  0  0  0  0 15  0  0  0  0  0  0
    0.5875   -1.1542    0.0000 I   0  0  0  0  0  0  0  0  0  0  0  0
M  CHG  2   1   1   2  -1
M  ISO  1   2 123
M  END
> <chembl_id>
CHEMBL1201083

> <chembl_pref_name>
SODIUM IODIDE I 123

$$$$

     RDKit          2D

 20 23  0  0  0  0  0  0  0  0999 V2000
    7.8187    5.6179    0.0000 C   0  0  0  0  0  0  0  0  0  0  0  0
    7.1042    6.0304    0.0000 C   0  0  0  0  0  0  0  0  0  0  0  0
    6.3897    5.6178    0.0000 C   0  0  0  0  0  0  0  0  0  0  0  0
    6.3897    4.7928    0.0000 C   0  0  0  0  0  0  0  0  0  0  0  0
    7.1042    4.3804    0.0000 C   0  0  0  0  0  0  0  0  0  0  0  0
    7.8186    4.7929    0.0000 C   0  0  0  0  0  0  0  0  0  0  0  0
    8.6032    4.5379    0.0000 N   0  0  0  0  0  0  0  0  0  0  0  0
    9.0882    5.2053    0.0000 C   0  0  0  0  0  0  0  0  0  0  0  0
    8.6033    5.8728    0.0000 C   0  0  0  0  0  0  0  0  0  0  0  0
    8.9388    6.6265    0.0000 C   0  0  0  0  0  0  0  0  0  0  0  0
    9.7593    6.7127    0.0000 N   0  0  0  0  0  0  0  0  0  0  0  0
   10.2442    6.0453    0.0000 C   0  0  0  0  0  0  0  0  0  0  0  0
    9.9086    5.2916    0.0000 C   0  0  0  0  0  0  0  0  0  0  0  0
    5.6752    4.3803    0.0000 C   0  0  0  0  0  0  0  0  0  0  0  0
    4.9607    4.7929    0.0000 C   0  0  0  0  0  0  0  0  0  0  0  0
    4.2463    4.3804    0.0000 N   0  0  0  0  0  0  0  0  0  0  0  0
    4.2463    3.5553    0.0000 C   0  0  0  0  0  0  0  0  0  0  0  0
    4.9608    3.1428    0.0000 C   0  0  0  0  0  0  0  0  0  0  0  0
    5.6752    3.5553    0.0000 C   0  0  0  0  0  0  0  0  0  0  0  0
    3.5318    3.1428    0.0000 F   0  0  0  0  0  0  0  0  0  0  0  0
  1  2  1  0
  2  3  2  0
  3  4  1  0
  4  5  2  0
  5  6  1  0
  6  7  1  0
  1  6  2  0
  1  9  1  0
  7  8  1  0
 13  8  1  0
  8  9  2  0
  9 10  1  0
 10 11  2  0
 11 12  1  0
 12 13  2  0
  4 14  1  0
 14 15  1  0
 14 19  2  0
 15 16  2  0
 16 17  1  0
 17 18  2  0
 18 19  1  0
 17 20  1  0
M  ISO  1  20  18
M  END
> <chembl_id>
CHEMBL3545253

> <chembl_pref_name>
FLORTAUCIPIR F 18

$$$$

     RDKit          2D

 15 14  0  0  0  0  0  0  0  0999 V2000
   -0.6083   -0.0917    0.0000 S   0  0  0  0  0  0  0  0  0  0  0  0
   -1.8708    0.6125    0.0000 C   0  0  0  0  0  0  0  0  0  0  0  0
    0.6292    0.6125    0.0000 C   0  0  0  0  0  0  0  0  0  0  0  0
   -1.8708    2.0250    0.0000 S   0  0  0  0  0  0  0  0  0  0  0  0
    0.6292    2.0250    0.0000 S   0  0  0  0  0  0  0  0  0  0  0  0
    1.8667   -0.0917    0.0000 N   0  0  0  0  0  0  0  0  0  0  0  0
   -3.1083   -0.0917    0.0000 N   0  0  0  0  0  0  0  0  0  0  0  0
   -3.1083   -1.5375    0.0000 C   0  0  0  0  0  0  0  0  0  0  0  0
   -4.3458    0.6125    0.0000 C   0  0  0  0  0  0  0  0  0  0  0  0
    3.1042    0.6458    0.0000 C   0  0  0  0  0  0  0  0  0  0  0  0
    1.8667   -1.5042    0.0000 C   0  0  0  0  0  0  0  0  0  0  0  0
   -4.3458   -2.2417    0.0000 C   0  0  0  0  0  0  0  0  0  0  0  0
   -4.3458    2.0250    0.0000 C   0  0  0  0  0  0  0  0  0  0  0  0
    4.3417   -0.0625    0.0000 C   0  0  0  0  0  0  0  0  0  0  0  0
    0.6292   -2.2167    0.0000 C   0  0  0  0  0  0  0  0  0  0  0  0
  2  1  1  0
  3  1  1  0
  4  2  2  0
  5  3  2  0
  6  3  1  0
  7  2  1  0
  8  7  1  0
  9  7  1  0
 10  6  1  0
 11  6  1  0
 12  8  1  0
 13  9  1  0
 14 10  1  0
 15 11  1  0
M  END
> <chembl_id>
CHEMBL2004297

> <chembl_pref_name>
SULFIRAM

$$$$

     RDKit          2D

 17 18  0  0  0  0  0  0  0  0999 V2000
    0.6167   -0.8667    0.0000 C   0  0  0  0  0  0  0  0  0  0  0  0
    1.9500   -0.4917    0.0000 C   0  0  0  0  0  0  0  0  0  0  0  0
    0.7000    1.3708    0.0000 N   0  0  0  0  0  0  0  0  0  0  0  0
    1.9667    0.8958    0.0000 C   0  0  0  0  0  0  0  0  0  0  0  0
   -0.1708    0.3083    0.0000 N   0  0  0  0  0  0  0  0  0  0  0  0
    3.0875   -1.3625    0.0000 N   0  0  0  0  0  0  0  0  0  0  0  0
    0.1667   -2.2000    0.0000 O   0  0  0  0  0  0  0  0  0  0  0  0
   -1.5375    0.3083    0.0000 C   0  0  0  0  0  0  0  0  0  0  0  0
    0.3542    2.7333    0.0000 C   0  0  0  0  0  0  0  0  0  0  0  0
    3.2792    1.5958    0.0000 C   0  0  0  0  0  0  0  0  0  0  0  0
    3.1042   -2.7292    0.0000 C   0  0  0  0  0  0  0  0  0  0  0  0
    4.3375   -0.7917    0.0000 C   0  0  0  0  0  0  0  0  0  0  0  0
   -2.2583    1.5208    0.0000 C   0  0  0  0  0  0  0  0  0  0  0  0
   -2.2583   -0.9042    0.0000 C   0  0  0  0  0  0  0  0  0  0  0  0
   -3.6208    1.5208    0.0000 C   0  0  0  0  0  0  0  0  0  0  0  0
   -3.6208   -0.9042    0.0000 C   0  0  0  0  0  0  0  0  0  0  0  0
   -4.3458    0.3083    0.0000 C   0  0  0  0  0  0  0  0  0  0  0  0
  2  1  1  0
  3  5  1  0
  4  2  2  0
  5  1  1  0
  6  2  1  0
  7  1  2  0
  8  5  1  0
  9  3  1  0
 10  4  1  0
 11  6  1  0
 12  6  1  0
 13  8  2  0
 14  8  1  0
 15 13  1  0
 16 14  2  0
 17 16  1  0
  3  4  1  0
 15 17  2  0
M  END
> <chembl_id>
CHEMBL288470

> <chembl_pref_name>
AMINOPYRINE

$$$$

     RDKit          2D

 20 21  0  0  0  0  0  0  0  0999 V2000
   -3.8441    1.2012    0.0000 C   0  0  0  0  0  0  0  0  0  0  0  0
   -4.5585    0.7887    0.0000 C   0  0  0  0  0  0  0  0  0  0  0  0
   -4.5585   -0.0363    0.0000 C   0  0  0  0  0  0  0  0  0  0  0  0
   -3.8441   -0.4488    0.0000 C   0  0  0  0  0  0  0  0  0  0  0  0
   -3.1296   -0.0363    0.0000 C   0  0  0  0  0  0  0  0  0  0  0  0
   -3.1296    0.7887    0.0000 C   0  0  0  0  0  0  0  0  0  0  0  0
   -2.4151    1.2012    0.0000 C   0  0  0  0  0  0  0  0  0  0  0  0
   -2.4151    2.0263    0.0000 C   0  0  0  0  0  0  0  0  0  0  0  0
   -1.7006    0.7887    0.0000 N   0  0  0  0  0  0  0  0  0  0  0  0
   -0.9862    1.2012    0.0000 C   0  0  0  0  0  0  0  0  0  0  0  0
   -0.9862    2.0262    0.0000 N   0  0  0  0  0  0  0  0  0  0  0  0
   -0.2717    2.4387    0.0000 C   0  0  0  0  0  0  0  0  0  0  0  0
   -0.2717    0.7887    0.0000 C   0  0  0  0  0  0  0  0  0  0  0  0
    0.4428    1.2012    0.0000 C   0  0  0  0  0  0  0  0  0  0  0  0
    0.4428    2.0262    0.0000 N   0  0  0  0  0  0  0  0  0  0  0  0
    1.1572    2.4387    0.0000 C   0  0  0  0  0  0  0  0  0  0  0  0
    1.1572    0.7887    0.0000 O   0  0  0  0  0  0  0  0  0  0  0  0
    1.8717    2.0262    0.0000 C   0  0  0  0  0  0  0  0  0  0  0  0
    1.1572    3.2638    0.0000 C   0  0  0  0  0  0  0  0  0  0  0  0
   -0.2717    3.2637    0.0000 O   0  0  0  0  0  0  0  0  0  0  0  0
  1  2  2  0
  2  3  1  0
  3  4  2  0
  4  5  1  0
  5  6  2  0
  1  6  1  0
  7  8  1  6
  6  7  1  0
  9 10  1  0
 10 11  1  0
  7  9  1  0
 13 14  1  0
 14 15  1  0
 12 15  1  0
 10 13  2  0
 12 11  1  0
 16 18  1  0
 14 17  2  0
 16 15  1  0
 19 16  1  0
 12 20  2  0
M  END
> <chembl_id>
CHEMBL4297517

> <chembl_pref_name>
MAVACAMTEN

$$$$

     RDKit          2D

 15 15  0  0  0  0  0  0  0  0999 V2000
   -1.5208    2.0583    0.0000 As  0  0  0  0  0  5  0  0  0  0  0  0
   -1.5208    0.7208    0.0000 C   0  0  0  0  0  0  0  0  0  0  0  0
   -0.3708   -1.2667    0.0000 C   0  0  0  0  0  0  0  0  0  0  0  0
   -0.3708    0.0625    0.0000 C   0  0  0  0  0  0  0  0  0  0  0  0
    0.8042   -1.9625    0.0000 N   0  0  0  0  0  0  0  0  0  0  0  0
    1.9542   -1.3000    0.0000 C   0  0  0  0  0  0  0  0  0  0  0  0
   -2.8500    2.0583    0.0000 O   0  0  0  0  0  0  0  0  0  0  0  0
   -1.5208   -1.9292    0.0000 C   0  0  0  0  0  0  0  0  0  0  0  0
   -2.6708    0.0625    0.0000 C   0  0  0  0  0  0  0  0  0  0  0  0
    1.9792    0.0333    0.0000 O   0  0  0  0  0  0  0  0  0  0  0  0
   -0.1875    2.0583    0.0000 O   0  0  0  0  0  0  0  0  0  0  0  0
   -1.5208    3.3833    0.0000 O   0  0  0  0  0  0  0  0  0  0  0  0
   -2.6708   -1.2667    0.0000 C   0  0  0  0  0  0  0  0  0  0  0  0
   -1.5208   -3.2625    0.0000 O   0  0  0  0  0  0  0  0  0  0  0  0
    3.1000   -1.9917    0.0000 C   0  0  0  0  0  0  0  0  0  0  0  0
  2  1  1  0
  3  4  2  0
  4  2  1  0
  5  3  1  0
  6  5  1  0
  7  1  2  0
  8 13  2  0
  9  2  2  0
 10  6  2  0
 11  1  1  0
 12  1  1  0
 13  9  1  0
 14  8  1  0
 15  6  1  0
  3  8  1  0
M  END
> <chembl_id>
CHEMBL1330792

> <chembl_pref_name>
ACETARSONE

$$$$

     RDKit          2D

 18 18  0  0  0  0  0  0  0  0999 V2000
    0.6417   -0.3375    0.0000 C   0  0  0  0  0  0  0  0  0  0  0  0
   -0.0625   -0.7375    0.0000 C   0  0  0  0  0  0  0  0  0  0  0  0
    1.3542   -0.7375    0.0000 C   0  0  0  0  0  0  0  0  0  0  0  0
   -0.0625   -1.5792    0.0000 O   0  0  0  0  0  0  0  0  0  0  0  0
    2.0917   -0.3167    0.0000 C   0  0  0  0  0  0  0  0  0  0  0  0
    3.5167    0.5208    0.0000 C   0  0  0  0  0  0  0  0  0  0  0  0
   -0.7833   -0.3375    0.0000 O   0  0  0  0  0  0  0  0  0  0  0  0
    2.0917    0.5208    0.0000 C   0  0  0  0  0  0  0  0  0  0  0  0
    2.8042   -0.7167    0.0000 C   0  0  0  0  0  0  0  0  0  0  0  0
    3.5167   -0.3167    0.0000 C   0  0  0  0  0  0  0  0  0  0  0  0
    2.8042    0.9250    0.0000 C   0  0  0  0  0  0  0  0  0  0  0  0
    4.2542    0.9458    0.0000 O   0  0  0  0  0  0  0  0  0  0  0  0
   -2.9208   -0.7375    0.0000 O   0  0  0  0  0  0  0  0  0  0  0  0
   -1.4958   -0.7375    0.0000 C   0  0  0  0  0  0  0  0  0  0  0  0
   -2.2083   -0.3375    0.0000 C   0  0  0  0  0  0  0  0  0  0  0  0
   -3.6333   -0.3375    0.0000 C   0  0  0  0  0  0  0  0  0  0  0  0
    4.2542    1.7833    0.0000 C   0  0  0  0  0  0  0  0  0  0  0  0
   -4.3458   -0.7375    0.0000 C   0  0  0  0  0  0  0  0  0  0  0  0
  2  1  1  0
  3  1  2  0
  4  2  2  0
  5  3  1  0
  6 10  2  0
  7  2  1  0
  8  5  1  0
  9  5  2  0
 10  9  1  0
 11  8  2  0
 12  6  1  0
 13 15  1  0
 14  7  1  0
 15 14  1  0
 16 13  1  0
 17 12  1  0
 18 16  1  0
 11  6  1  0
M  END
> <chembl_id>
CHEMBL2104045

> <chembl_pref_name>
CINOXATE

$$$$

     RDKit          2D

 12 12  0  0  0  0  0  0  0  0999 V2000
    2.5631    1.5224    0.0000 C   0  0  0  0  0  0  0  0  0  0  0  0
    1.2990   -0.7500    0.0000 C   0  0  0  0  0  0  0  0  0  0  0  0
    3.6023    2.1226    0.0000 O   0  0  0  0  0  0  0  0  0  0  0  0
    2.5625    0.0216    0.0000 C   0  0  0  0  0  0  0  0  0  0  0  0
    1.5240    2.1225    0.0000 O   0  0  0  0  0  0  0  0  0  0  0  0
    2.3015   -2.8311    0.0000 N   0  0  0  0  0  0  0  0  0  0  0  0
    1.2628   -2.2303    0.0000 C   0  0  0  0  0  0  0  0  0  0  0  0
    1.2990    0.7500    0.0000 C   0  0  0  0  0  0  0  0  0  0  0  0
    0.0000   -1.5000    0.0000 C   0  0  0  0  0  0  0  0  0  0  0  0
   -1.2990   -0.7500    0.0000 C   0  0  0  0  0  0  0  0  0  0  0  0
    0.0000    1.5000    0.0000 C   0  0  0  0  0  0  0  0  0  0  0  0
   -1.2990    0.7500    0.0000 C   0  0  0  0  0  0  0  0  0  0  0  0
  1  3  2  0
  1  4  1  0
  2  4  1  0
  1  5  1  0
  2  7  1  0
  6  7  1  0
  2  8  1  0
  2  9  1  0
  9 10  1  0
  8 11  1  0
 10 12  1  0
 11 12  1  0
M  END
> <chembl_id>
CHEMBL940

> <chembl_pref_name>
GABAPENTIN

$$$$

     RDKit          2D

 16 19  0  0  0  0  0  0  0  0999 V2000
   -0.4238   -1.3013    0.0000 C   0  0  0  0  0  0  0  0  0  0  0  0
   -0.4249   -2.0120    0.0000 C   0  0  0  0  0  0  0  0  0  0  0  0
    0.1899   -2.3665    0.0000 C   0  0  0  0  0  0  0  0  0  0  0  0
    0.1881   -0.9468    0.0000 C   0  0  0  0  0  0  0  0  0  0  0  0
    0.7993   -1.2976    0.0000 C   0  0  0  0  0  0  0  0  0  0  0  0
    0.8004   -2.0083    0.0000 C   0  0  0  0  0  0  0  0  0  0  0  0
    1.4154   -2.3612    0.0000 N   0  0  0  0  0  0  0  0  0  0  0  0
    2.0298   -2.0044    0.0000 C   0  0  0  0  0  0  0  0  0  0  0  0
    2.0253   -1.2910    0.0000 C   0  0  0  0  0  0  0  0  0  0  0  0
    1.4097   -0.9413    0.0000 N   0  0  0  0  0  0  0  0  0  0  0  0
   -1.6849   -2.2850    0.0000 C   0  0  0  0  0  0  0  0  0  0  0  0
   -1.9854   -1.6446    0.0000 N   0  0  0  0  0  0  0  0  0  0  0  0
   -1.6693   -1.0032    0.0000 C   0  0  0  0  0  0  0  0  0  0  0  0
   -0.9891   -2.4528    0.0000 C   0  0  0  0  0  0  0  0  0  0  0  0
   -0.9734   -0.8499    0.0000 C   0  0  0  0  0  0  0  0  0  0  0  0
   -1.2417   -1.6417    0.0000 C   0  0  0  0  0  0  0  0  0  0  0  0
 12 13  1  0
  5  6  1  0
 11 14  1  0
  2  3  1  0
 13 15  1  0
 14  2  1  0
 15  1  1  0
  6  7  1  0
 15 16  1  0
 16 14  1  0
  3  6  2  0
  7  8  2  0
  8  9  1  0
  5  4  2  0
  9 10  2  0
 10  5  1  0
  4  1  1  0
  1  2  2  0
 11 12  1  0
M  END
> <chembl_id>
CHEMBL1396

> <chembl_pref_name>
VARENICLINE

$$$$

     RDKit          2D

 19 20  0  0  0  0  0  0  0  0999 V2000
   -0.4333   -1.2792    0.0000 N   0  0  0  0  0  0  0  0  0  0  0  0
   -0.4375   -3.3917    0.0000 N   0  0  0  0  0  0  0  0  0  0  0  0
    0.4917    3.4708    0.0000 N   0  0  0  0  0  0  0  0  0  0  0  0
    0.4792    1.3583    0.0000 N   0  0  0  0  0  0  0  0  0  0  0  0
    0.4792   -2.8667    0.0000 C   0  0  0  0  0  0  0  0  0  0  0  0
   -1.3458   -2.8542    0.0000 C   0  0  0  0  0  0  0  0  0  0  0  0
   -0.4250    2.9458    0.0000 C   0  0  0  0  0  0  0  0  0  0  0  0
    1.4000    2.9333    0.0000 C   0  0  0  0  0  0  0  0  0  0  0  0
    0.4875   -1.8042    0.0000 C   0  0  0  0  0  0  0  0  0  0  0  0
   -1.3458   -1.8042    0.0000 C   0  0  0  0  0  0  0  0  0  0  0  0
   -0.4333   -0.2292    0.0000 C   0  0  0  0  0  0  0  0  0  0  0  0
    0.4792    0.3000    0.0000 C   0  0  0  0  0  0  0  0  0  0  0  0
    1.4000    1.8833    0.0000 C   0  0  0  0  0  0  0  0  0  0  0  0
   -0.4333    1.8833    0.0000 C   0  0  0  0  0  0  0  0  0  0  0  0
   -2.2625   -3.3792    0.0000 O   0  0  0  0  0  0  0  0  0  0  0  0
    1.3917   -3.4000    0.0000 O   0  0  0  0  0  0  0  0  0  0  0  0
   -1.3458    3.4708    0.0000 O   0  0  0  0  0  0  0  0  0  0  0  0
    2.3167    3.4583    0.0000 O   0  0  0  0  0  0  0  0  0  0  0  0
   -1.3458    0.3000    0.0000 C   0  0  0  0  0  0  0  0  0  0  0  0
  2  6  1  0
  3  7  1  0
  4 12  1  0
  5  9  1  0
  6 10  1  0
  7 14  1  0
  8 13  1  0
  9  1  1  0
 10  1  1  0
 11  1  1  0
 12 11  1  0
 13  4  1  0
 14  4  1  0
 15  6  2  0
 16  5  2  0
 17  7  2  0
 18  8  2  0
 19 11  1  0
  5  2  1  0
  8  3  1  0
M  END
> <chembl_id>
CHEMBL444186

> <chembl_pref_name>
RAZOXANE

$$$$

     RDKit          2D

 23 25  0  0  1  0  0  0  0  0999 V2000
   -3.2958    2.1000    0.0000 N   0  0  0  0  0  0  0  0  0  0  0  0
    0.3167   -1.6667    0.0000 C   0  0  0  0  0  0  0  0  0  0  0  0
    0.9042   -0.6917    0.0000 C   0  0  0  0  0  0  0  0  0  0  0  0
   -2.9625    0.2708    0.0000 C   0  0  0  0  0  0  0  0  0  0  0  0
   -2.6583    0.7750    0.0000 C   0  0  0  0  0  0  0  0  0  0  0  0
   -1.2500   -0.9250    0.0000 C   0  0  0  0  0  0  0  0  0  0  0  0
   -0.8208   -1.6667    0.0000 O   0  0  0  0  0  0  0  0  0  0  0  0
   -1.5083    0.1333    0.0000 C   0  0  0  0  0  0  0  0  0  0  0  0
   -1.8083   -0.3542    0.0000 C   0  0  0  0  0  0  0  0  0  0  0  0
    0.8917   -2.6417    0.0000 O   0  0  0  0  0  0  0  0  0  0  0  0
    2.0500   -0.7000    0.0000 C   0  0  0  0  0  0  0  0  0  0  0  0
   -4.3458   -0.2792    0.0000 C   0  0  0  0  0  0  0  0  0  0  0  0
   -4.0000    0.2708    0.0000 C   0  0  0  0  0  0  0  0  0  0  0  0
   -2.5250    2.8708    0.0000 C   0  0  0  0  0  0  0  0  0  0  0  0
    0.3542    0.3000    0.0000 C   0  0  0  0  0  0  0  0  0  0  0  0
   -0.7875    0.3208    0.0000 O   0  0  0  0  0  0  0  0  0  0  0  0
    2.6167   -1.7042    0.0000 C   0  0  0  0  0  0  0  0  0  0  0  0
    2.6167    0.2833    0.0000 C   0  0  0  0  0  0  0  0  0  0  0  0
    3.7667    0.2708    0.0000 C   0  0  0  0  0  0  0  0  0  0  0  0
    3.7792   -1.7042    0.0000 C   0  0  0  0  0  0  0  0  0  0  0  0
    4.3417   -0.7292    0.0000 C   0  0  0  0  0  0  0  0  0  0  0  0
   -2.0208    1.6375    0.0000 H   0  0  0  0  0  0  0  0  0  0  0  0
   -3.2625   -0.8792    0.0000 H   0  0  0  0  0  0  0  0  0  0  0  0
  2  7  1  0
  3  2  1  0
  4  1  1  0
  5  1  1  0
  6  8  1  0
  6  7  1  6
  8  5  1  0
  9  4  1  0
 10  2  2  0
 11  3  1  0
 12  4  1  0
 13  5  1  0
 14  1  1  0
  3 15  1  6
 16 15  1  0
 17 11  2  0
 18 11  1  0
 19 18  2  0
 20 17  1  0
 21 19  1  0
  5 22  1  6
  4 23  1  1
 13 12  1  0
  9  6  1  0
 20 21  2  0
M  END
> <chembl_id>
CHEMBL1331216

> <chembl_pref_name>
HYOSCYAMINE

$$$$

     RDKit          2D

 19 20  0  0  0  0  0  0  0  0999 V2000
    4.2667   -5.7667    0.0000 C   0  0  0  0  0  0  0  0  0  0  0  0
    4.8792   -6.1167    0.0000 C   0  0  0  0  0  0  0  0  0  0  0  0
    7.3292   -6.1042    0.0000 C   0  0  0  0  0  0  0  0  0  0  0  0
    6.1042   -6.1125    0.0000 C   0  0  0  0  0  0  0  0  0  0  0  0
    5.4917   -5.7625    0.0000 C   0  0  0  0  0  0  0  0  0  0  0  0
    6.7167   -5.7542    0.0000 C   0  0  0  0  0  0  0  0  0  0  0  0
    4.2667   -5.0542    0.0000 O   0  0  0  0  0  0  0  0  0  0  0  0
    7.3375   -6.8125    0.0000 O   0  0  0  0  0  0  0  0  0  0  0  0
    3.6542   -6.1250    0.0000 C   0  0  0  0  0  0  0  0  0  0  0  0
    7.9417   -5.7417    0.0000 O   0  0  0  0  0  0  0  0  0  0  0  0
    4.8792   -6.8292    0.0000 C   0  0  0  0  0  0  0  0  0  0  0  0
    6.1042   -6.8250    0.0000 C   0  0  0  0  0  0  0  0  0  0  0  0
    5.4917   -7.1792    0.0000 C   0  0  0  0  0  0  0  0  0  0  0  0
    6.7042   -5.0417    0.0000 C   0  0  0  0  0  0  0  0  0  0  0  0
    3.0417   -5.7667    0.0000 C   0  0  0  0  0  0  0  0  0  0  0  0
    3.6542   -6.8375    0.0000 C   0  0  0  0  0  0  0  0  0  0  0  0
    2.4292   -6.1250    0.0000 C   0  0  0  0  0  0  0  0  0  0  0  0
    3.0417   -7.1917    0.0000 C   0  0  0  0  0  0  0  0  0  0  0  0
    2.4292   -6.8375    0.0000 C   0  0  0  0  0  0  0  0  0  0  0  0
  2  1  1  0
  3  6  1  0
  4  5  2  0
  5  2  1  0
  6  4  1  0
  7  1  2  0
  8  3  2  0
  9  1  1  0
 10  3  1  0
 11  2  2  0
 12 13  2  0
 13 11  1  0
 14  6  1  0
 15  9  2  0
 16  9  1  0
 17 15  1  0
 18 16  2  0
 19 18  1  0
 19 17  2  0
 12  4  1  0
M  END
> <chembl_id>
CHEMBL571

> <chembl_pref_name>
KETOPROFEN

$$$$

     RDKit          2D

  2  1  0  0  0  0  0  0  0  0999 V2000
    1.1167    0.0500    0.0000 O   0  0  0  0  0  0  0  0  0  0  0  0
   -0.3208    0.0500    0.0000 C   0  0  0  0  0  0  0  0  0  0  0  0
  2  1  2  0
M  END
> <chembl_id>
CHEMBL1255

> <chembl_pref_name>
FORMALDEHYDE

$$$$

     RDKit          2D

 19 20  0  0  0  0  0  0  0  0999 V2000
    2.1750   -3.0292    0.0000 C   0  0  0  0  0  0  0  0  0  0  0  0
    2.7875   -3.3875    0.0000 C   0  0  0  0  0  0  0  0  0  0  0  0
    1.5625   -3.3917    0.0000 C   0  0  0  0  0  0  0  0  0  0  0  0
    2.7875   -4.0917    0.0000 N   0  0  0  0  0  0  0  0  0  0  0  0
    3.4000   -3.0292    0.0000 C   0  0  0  0  0  0  0  0  0  0  0  0
    0.9417   -3.0417    0.0000 C   0  0  0  0  0  0  0  0  0  0  0  0
    1.5625   -4.1042    0.0000 C   0  0  0  0  0  0  0  0  0  0  0  0
    0.3292   -4.1042    0.0000 C   0  0  0  0  0  0  0  0  0  0  0  0
    1.6667   -2.5292    0.0000 C   0  0  0  0  0  0  0  0  0  0  0  0
    2.6750   -2.5292    0.0000 C   0  0  0  0  0  0  0  0  0  0  0  0
    0.3292   -3.3917    0.0000 C   0  0  0  0  0  0  0  0  0  0  0  0
    0.9417   -4.4625    0.0000 C   0  0  0  0  0  0  0  0  0  0  0  0
   -0.2833   -4.4625    0.0000 Cl  0  0  0  0  0  0  0  0  0  0  0  0
    2.1667   -2.0292    0.0000 C   0  0  0  0  0  0  0  0  0  0  0  0
    4.0167   -3.3875    0.0000 C   0  0  0  0  0  0  0  0  0  0  0  0
    3.4042   -4.4458    0.0000 C   0  0  0  0  0  0  0  0  0  0  0  0
    2.1750   -4.4458    0.0000 C   0  0  0  0  0  0  0  0  0  0  0  0
    4.6292   -3.0292    0.0000 C   0  0  0  0  0  0  0  0  0  0  0  0
    4.0167   -4.0917    0.0000 C   0  0  0  0  0  0  0  0  0  0  0  0
  2  1  1  0
  3  1  1  0
  4  2  1  0
  5  2  1  0
  6  3  2  0
  7  3  1  0
  8 12  1  0
  9  1  1  0
 10  1  1  0
 11  6  1  0
 12  7  2  0
 13  8  1  0
 14 10  1  0
 15  5  1  0
 16  4  1  0
 17  4  1  0
 18 15  1  0
 19 15  1  0
 14  9  1  0
  8 11  2  0
M  END
> <chembl_id>
CHEMBL1419

> <chembl_pref_name>
SIBUTRAMINE

$$$$

     RDKit          2D

 13 13  0  0  1  0  0  0  0  0999 V2000
    3.8917   -5.1417    0.0000 C   0  0  0  0  0  0  0  0  0  0  0  0
    3.2792   -4.7875    0.0000 C   0  0  0  0  0  0  0  0  0  0  0  0
    4.5042   -4.7875    0.0000 C   0  0  0  0  0  0  0  0  0  0  0  0
    3.2667   -4.0708    0.0000 C   0  0  0  0  0  0  0  0  0  0  0  0
    4.5042   -4.0708    0.0000 C   0  0  0  0  0  0  0  0  0  0  0  0
    3.8875   -3.7167    0.0000 C   0  0  0  0  0  0  0  0  0  0  0  0
    5.1125   -5.1292    0.0000 C   0  0  0  0  0  0  0  0  0  0  0  0
    2.6542   -5.1417    0.0000 O   0  0  0  0  0  0  0  0  0  0  0  0
    6.3500   -5.1375    0.0000 N   0  0  0  0  0  0  0  0  0  0  0  0
    2.6500   -3.7292    0.0000 O   0  0  0  0  0  0  0  0  0  0  0  0
    5.1167   -5.8417    0.0000 O   0  0  0  0  0  0  0  0  0  0  0  0
    5.7292   -4.7792    0.0000 C   0  0  0  0  0  0  0  0  0  0  0  0
    6.9667   -4.7792    0.0000 C   0  0  0  0  0  0  0  0  0  0  0  0
  2  1  1  0
  3  1  2  0
  4  2  2  0
  5  3  1  0
  6  5  2  0
  7  3  1  0
  8  2  1  0
  9 12  1  0
 10  4  1  0
  7 11  1  6
 12  7  1  0
 13  9  1  0
  6  4  1  0
M  END
> <chembl_id>
CHEMBL679

> <chembl_pref_name>
EPINEPHRINE

$$$$

     RDKit          2D

 16 16  0  0  0  0  0  0  0  0999 V2000
    8.0808    0.2647    0.0000 C   0  0  0  0  0  0  0  0  0  0  0  0
    8.7822    0.6565    0.0000 C   0  0  0  0  0  0  0  0  0  0  0  0
    7.3698    0.6565    0.0000 C   0  0  0  0  0  0  0  0  0  0  0  0
    5.1835    0.2502    0.0000 C   0  0  0  0  0  0  0  0  0  0  0  0
    8.4726   -0.4173    0.0000 N   0  0  0  0  0  0  0  0  0  0  0  0
    5.1835   -0.5914    0.0000 C   0  0  0  0  0  0  0  0  0  0  0  0
    5.9041    0.6275    0.0000 C   0  0  0  0  0  0  0  0  0  0  0  0
    6.6297    0.2502    0.0000 C   0  0  0  0  0  0  0  0  0  0  0  0
    8.7822    1.4885    0.0000 O   0  0  0  0  0  0  0  0  0  0  0  0
    5.9041   -0.9978    0.0000 C   0  0  0  0  0  0  0  0  0  0  0  0
    9.5029    0.2502    0.0000 O   0  0  0  0  0  0  0  0  0  0  0  0
    6.6297   -0.5914    0.0000 C   0  0  0  0  0  0  0  0  0  0  0  0
    8.0518   -1.1284    0.0000 N   0  0  0  0  0  0  0  0  0  0  0  0
    4.4821    0.6565    0.0000 O   0  0  0  0  0  0  0  0  0  0  0  0
    7.6649   -0.4463    0.0000 C   0  0  0  0  0  0  0  0  0  0  0  0
    4.4821   -1.0123    0.0000 O   0  0  0  0  0  0  0  0  0  0  0  0
  2  1  1  0
  3  1  1  0
  4  7  2  0
  5  1  1  0
  6 10  2  0
  7  8  1  0
  8  3  1  0
  9  2  2  0
 10 12  1  0
 11  2  1  0
 12  8  2  0
 13  5  1  0
 14  4  1  0
  1 15  1  6
 16  6  1  0
  4  6  1  0
M  END
> <chembl_id>
CHEMBL1201236

> <chembl_pref_name>
CARBIDOPA

$$$$

     RDKit          2D

 17 18  0  0  0  0  0  0  0  0999 V2000
    0.6000   -1.6167    0.0000 C   0  0  0  0  0  0  0  0  0  0  0  0
    0.6000   -0.2875    0.0000 C   0  0  0  0  0  0  0  0  0  0  0  0
   -0.5250   -2.2542    0.0000 N   0  0  0  0  0  0  0  0  0  0  0  0
   -1.6583   -0.3292    0.0000 N   0  0  0  0  0  0  0  0  0  0  0  0
   -1.6583   -1.5792    0.0000 C   0  0  0  0  0  0  0  0  0  0  0  0
   -0.5250    0.3583    0.0000 C   0  0  0  0  0  0  0  0  0  0  0  0
    1.8042   -2.0167    0.0000 N   0  0  0  0  0  0  0  0  0  0  0  0
    1.8042    0.1125    0.0000 N   0  0  0  0  0  0  0  0  0  0  0  0
    2.5667   -0.9750    0.0000 C   0  0  0  0  0  0  0  0  0  0  0  0
   -2.8208   -2.2167    0.0000 O   0  0  0  0  0  0  0  0  0  0  0  0
   -0.5250    1.6458    0.0000 O   0  0  0  0  0  0  0  0  0  0  0  0
    2.4917    1.3625    0.0000 C   0  0  0  0  0  0  0  0  0  0  0  0
   -0.5250   -3.5875    0.0000 C   0  0  0  0  0  0  0  0  0  0  0  0
   -2.8208    0.3125    0.0000 C   0  0  0  0  0  0  0  0  0  0  0  0
    1.9417    2.3833    0.0000 C   0  0  0  0  0  0  0  0  0  0  0  0
    0.5542    3.1333    0.0000 O   0  0  0  0  0  0  0  0  0  0  0  0
    3.0750    3.5958    0.0000 C   0  0  0  0  0  0  0  0  0  0  0  0
  2  1  2  0
  3  1  1  0
  4  5  1  0
  5  3  1  0
  6  2  1  0
  7  1  1  0
  8  2  1  0
  9  7  2  0
 10  5  2  0
 11  6  2  0
 12  8  1  0
 13  3  1  0
 14  4  1  0
 15 12  1  0
 16 15  1  0
 17 15  1  0
  8  9  1  0
  6  4  1  0
M  END
> <chembl_id>
CHEMBL37390

> <chembl_pref_name>
PROXYPHYLLINE

$$$$

     RDKit          2D

  7  5  0  0  0  0  0  0  0  0999 V2000
    2.6833   -1.4375    0.0000 K   0  0  0  0  0 15  0  0  0  0  0  0
    1.1208   -1.6958    0.0000 C   0  0  0  0  0  0  0  0  0  0  0  0
    1.7375   -1.3375    0.0000 O   0  0  0  0  0  0  0  0  0  0  0  0
    1.1208   -2.4083    0.0000 O   0  0  0  0  0  0  0  0  0  0  0  0
    0.5083   -1.3417    0.0000 C   0  0  0  0  0  0  0  0  0  0  0  0
    0.5042   -0.6292    0.0000 O   0  0  0  0  0  0  0  0  0  0  0  0
   -0.1083   -1.7000    0.0000 C   0  0  0  0  0  0  0  0  0  0  0  0
  3  2  1  0
  4  2  2  0
  5  2  1  0
  6  5  1  0
  7  5  1  0
M  CHG  2   1   1   3  -1
M  END
> <chembl_id>
CHEMBL1200664

> <chembl_pref_name>
POTASSIUM LACTATE

$$$$

     RDKit          2D

 18 19  0  0  1  0  0  0  0  0999 V2000
    0.8042   -0.3333    0.0000 C   0  0  0  0  0  0  0  0  0  0  0  0
    1.4167   -0.6875    0.0000 C   0  0  0  0  0  0  0  0  0  0  0  0
   -0.4250   -0.3292    0.0000 N   0  0  0  0  0  0  0  0  0  0  0  0
    0.1875   -0.6875    0.0000 C   0  0  0  0  0  0  0  0  0  0  0  0
    0.8042    0.3750    0.0000 C   0  0  0  0  0  0  0  0  0  0  0  0
    1.4167   -1.3958    0.0000 O   0  0  0  0  0  0  0  0  0  0  0  0
    2.0292   -0.3333    0.0000 O   0  0  0  0  0  0  0  0  0  0  0  0
   -1.0333   -0.6875    0.0000 C   0  0  0  0  0  0  0  0  0  0  0  0
    0.1917    0.7292    0.0000 C   0  0  0  0  0  0  0  0  0  0  0  0
    1.4167    0.7292    0.0000 C   0  0  0  0  0  0  0  0  0  0  0  0
    0.1875   -1.3917    0.0000 C   0  0  0  0  0  0  0  0  0  0  0  0
    2.6417   -0.6875    0.0000 C   0  0  0  0  0  0  0  0  0  0  0  0
   -1.0333   -1.3917    0.0000 C   0  0  0  0  0  0  0  0  0  0  0  0
    1.4208    1.4375    0.0000 C   0  0  0  0  0  0  0  0  0  0  0  0
    0.1875    1.4333    0.0000 C   0  0  0  0  0  0  0  0  0  0  0  0
   -0.4250   -1.7500    0.0000 C   0  0  0  0  0  0  0  0  0  0  0  0
    0.8042    1.7917    0.0000 C   0  0  0  0  0  0  0  0  0  0  0  0
    0.8000   -1.0417    0.0000 H   0  0  0  0  0  0  0  0  0  0  0  0
  2  1  1  0
  3  4  1  0
  4  1  1  0
  1  5  1  1
  6  2  2  0
  7  2  1  0
  8  3  1  0
  9  5  1  0
 10  5  2  0
 11  4  1  0
 12  7  1  0
 13  8  1  0
 14 10  1  0
 15  9  2  0
 16 11  1  0
 17 15  1  0
  4 18  1  6
 16 13  1  0
 17 14  2  0
M  END
> <chembl_id>
CHEMBL827

> <chembl_pref_name>
DEXMETHYLPHENIDATE

$$$$

     RDKit          2D

 18 18  0  0  0  0  0  0  0  0999 V2000
   -2.8512    1.9472    0.0000 C   0  0  0  0  0  0  0  0  0  0  0  0
   -3.6660    2.0763    0.0000 C   0  0  0  0  0  0  0  0  0  0  0  0
   -4.0405    1.3412    0.0000 C   0  0  0  0  0  0  0  0  0  0  0  0
   -3.4572    0.7578    0.0000 C   0  0  0  0  0  0  0  0  0  0  0  0
   -2.7221    1.1324    0.0000 N   0  0  0  0  0  0  0  0  0  0  0  0
   -2.2678    2.5306    0.0000 O   0  0  0  0  0  0  0  0  0  0  0  0
   -3.5862   -0.0569    0.0000 O   0  0  0  0  0  0  0  0  0  0  0  0
   -1.9871    0.7578    0.0000 C   0  0  0  0  0  0  0  0  0  0  0  0
   -1.2951    1.2072    0.0000 C   0  0  0  0  0  0  0  0  0  0  0  0
   -0.5601    0.8326    0.0000 O   0  0  0  0  0  0  0  0  0  0  0  0
    0.1317    1.2819    0.0000 C   0  0  0  0  0  0  0  0  0  0  0  0
    0.8668    0.9074    0.0000 C   0  0  0  0  0  0  0  0  0  0  0  0
    1.5587    1.3567    0.0000 C   0  0  0  0  0  0  0  0  0  0  0  0
    2.2938    0.9822    0.0000 C   0  0  0  0  0  0  0  0  0  0  0  0
    2.9857    1.4315    0.0000 O   0  0  0  0  0  0  0  0  0  0  0  0
    3.7208    1.0570    0.0000 C   0  0  0  0  0  0  0  0  0  0  0  0
    2.3370    0.1583    0.0000 O   0  0  0  0  0  0  0  0  0  0  0  0
    0.0886    2.1058    0.0000 O   0  0  0  0  0  0  0  0  0  0  0  0
  1  2  1  0
  2  3  1  0
  3  4  1  0
  4  5  1  0
  1  5  1  0
  1  6  2  0
  4  7  2  0
  8  9  1  0
  9 10  1  0
 10 11  1  0
 11 12  1  0
 12 13  2  0
 13 14  1  0
 14 15  1  0
  5  8  1  0
 15 16  1  0
 14 17  2  0
 11 18  2  0
M  END
> <chembl_id>
CHEMBL3989944

> <chembl_pref_name>
DIROXIMEL FUMARATE

$$$$

     RDKit          2D

 18 18  0  0  0  0  0  0  0  0999 V2000
    5.7022   -6.5072    0.0000 Na  0  0  0  0  0 15  0  0  0  0  0  0
    4.7471   -6.5217    0.0000 N   0  0  0  0  0  0  0  0  0  0  0  0
    4.0779   -6.0368    0.0000 C   0  0  0  0  0  0  0  0  0  0  0  0
    3.4135   -6.5217    0.0000 N   0  0  0  0  0  0  0  0  0  0  0  0
    0.6497   -4.8731    0.0000 C   0  0  0  0  0  0  0  0  0  0  0  0
   -0.0678   -5.2804    0.0000 N   0  0  0  0  0  0  0  0  0  0  0  0
    4.4900   -7.3073    0.0000 C   0  0  0  0  0  0  0  0  0  0  0  0
    3.6657   -7.3073    0.0000 C   0  0  0  0  0  0  0  0  0  0  0  0
    1.3141   -5.3580    0.0000 O   0  0  0  0  0  0  0  0  0  0  0  0
    2.6911   -6.1095    0.0000 N   0  0  0  0  0  0  0  0  0  0  0  0
    0.9019   -4.0876    0.0000 C   0  0  0  0  0  0  0  0  0  0  0  0
    1.9832   -4.8731    0.0000 C   0  0  0  0  0  0  0  0  0  0  0  0
    2.6960   -5.2853    0.0000 C   0  0  0  0  0  0  0  0  0  0  0  0
    1.7310   -4.0876    0.0000 C   0  0  0  0  0  0  0  0  0  0  0  0
   -0.7806   -4.8585    0.0000 O   0  0  0  0  0  0  0  0  0  0  0  0
   -0.0776   -6.0999    0.0000 O   0  0  0  0  0  0  0  0  0  0  0  0
    4.0779   -5.2125    0.0000 O   0  0  0  0  0  0  0  0  0  0  0  0
    4.9749   -7.9715    0.0000 O   0  0  0  0  0  0  0  0  0  0  0  0
  3  2  1  0
  4  3  1  0
  5  9  1  0
  6  5  1  0
  7  2  1  0
  8  7  1  0
  9 12  1  0
 10  4  1  0
 11 14  1  0
 12 13  1  0
 13 10  2  0
 14 12  2  0
 15  6  2  0
 16  6  1  0
 17  3  2  0
 18  7  2  0
  8  4  1  0
 11  5  2  0
M  CHG  4   1   1   2  -1   6   1  16  -1
M  END
> <chembl_id>
CHEMBL1201000

> <chembl_pref_name>
NITROFURANTOIN SODIUM

$$$$

     RDKit          2D

  9  8  0  0  0  0  0  0  0  0999 V2000
   -3.8440    0.6005    0.0000 C   0  0  0  0  0  0  0  0  0  0  0  0
   -3.1295    1.0130    0.0000 O   0  0  0  0  0  0  0  0  0  0  0  0
   -2.4150    0.6005    0.0000 C   0  0  0  0  0  0  0  0  0  0  0  0
   -1.7006    1.0130    0.0000 C   0  0  0  0  0  0  0  0  0  0  0  0
   -0.9861    0.6005    0.0000 C   0  0  0  0  0  0  0  0  0  0  0  0
   -0.2716    1.0130    0.0000 C   0  0  0  0  0  0  0  0  0  0  0  0
    0.4429    0.6005    0.0000 O   0  0  0  0  0  0  0  0  0  0  0  0
   -2.4150   -0.2245    0.0000 O   0  0  0  0  0  0  0  0  0  0  0  0
   -0.2758    1.8369    0.0000 O   0  0  0  0  0  0  0  0  0  0  0  0
  1  2  1  0
  2  3  1  0
  3  4  1  0
  4  5  2  0
  5  6  1  0
  6  7  1  0
  3  8  2  0
  6  9  2  0
M  END
> <chembl_id>
CHEMBL589586

> <chembl_pref_name>
MONOMETHYL FUMARATE

$$$$

     RDKit          2D

 12 12  0  0  0  0  0  0  0  0999 V2000
    4.2125   -5.1542    0.0000 C   0  0  0  0  0  0  0  0  0  0  0  0
    5.7167   -5.0917    0.0000 C   0  0  0  0  0  0  0  0  0  0  0  0
    6.1667   -5.6520    0.0000 C   0  0  0  0  0  0  0  0  0  0  0  0
    5.2750   -4.5417    0.0000 C   0  0  0  0  0  0  0  0  0  0  0  0
    4.9167   -5.1542    0.0000 O   0  0  0  0  0  0  0  0  0  0  0  0
    3.8542   -5.7667    0.0000 O   0  0  0  0  0  0  0  0  0  0  0  0
    3.8542   -4.5375    0.0000 N   0  0  0  0  0  0  0  0  0  0  0  0
    5.8917   -4.1917    0.0000 C   0  0  0  0  0  0  0  0  0  0  0  0
    4.6667   -4.1792    0.0000 C   0  0  0  0  0  0  0  0  0  0  0  0
    5.9042   -3.4792    0.0000 C   0  0  0  0  0  0  0  0  0  0  0  0
    4.6667   -3.4667    0.0000 C   0  0  0  0  0  0  0  0  0  0  0  0
    5.2917   -3.1167    0.0000 C   0  0  0  0  0  0  0  0  0  0  0  0
  2  4  1  0
  3  2  3  0
  4  5  1  0
  5  1  1  0
  6  1  2  0
  7  1  1  0
  8  4  1  0
  9  4  1  0
 10  8  1  0
 11  9  1  0
 12 11  1  0
 12 10  1  0
M  END
> <chembl_id>
CHEMBL1576

> <chembl_pref_name>
ETHINAMATE

$$$$

     RDKit          2D

  3  2  0  0  0  0  0  0  0  0999 V2000
    4.9795   -2.1214    0.0000 Ra  0  0  0  0  0  2  0  0  0  0  0  0
    5.8045   -2.1214    0.0000 Cl  0  0  0  0  0  0  0  0  0  0  0  0
    4.1545   -2.1214    0.0000 Cl  0  0  0  0  0  0  0  0  0  0  0  0
  1  2  1  0
  1  3  1  0
M  END
> <chembl_id>
CHEMBL2111187

> <chembl_pref_name>
RADIUM DICHLORIDE

$$$$

     RDKit          2D

 19 20  0  0  0  0  0  0  0  0999 V2000
    4.5917  -18.7792    0.0000 C   0  0  0  0  0  0  0  0  0  0  0  0
    5.2917  -19.1917    0.0000 C   0  0  0  0  0  0  0  0  0  0  0  0
    4.5917  -17.9542    0.0000 N   0  0  0  0  0  0  0  0  0  0  0  0
    3.8750  -19.1917    0.0000 C   0  0  0  0  0  0  0  0  0  0  0  0
    5.2917  -20.0292    0.0000 C   0  0  0  0  0  0  0  0  0  0  0  0
    6.0042  -18.7792    0.0000 N   0  0  0  0  0  0  0  0  0  0  0  0
    3.8750  -20.0292    0.0000 C   0  0  0  0  0  0  0  0  0  0  0  0
    4.5917  -20.4417    0.0000 C   0  0  0  0  0  0  0  0  0  0  0  0
    1.0250  -17.5292    0.0000 N   0  0  0  0  0  0  0  0  0  0  0  0
    3.1500  -20.4417    0.0000 O   0  0  0  0  0  0  0  0  0  0  0  0
    3.8792  -17.5417    0.0000 C   0  0  0  0  0  0  0  0  0  0  0  0
    6.0042  -20.4417    0.0000 C   0  0  0  0  0  0  0  0  0  0  0  0
    6.7292  -19.1917    0.0000 C   0  0  0  0  0  0  0  0  0  0  0  0
    1.7417  -17.9375    0.0000 C   0  0  0  0  0  0  0  0  0  0  0  0
    2.4417  -20.0167    0.0000 C   0  0  0  0  0  0  0  0  0  0  0  0
    3.1667  -17.9542    0.0000 C   0  0  0  0  0  0  0  0  0  0  0  0
    3.8792  -16.7167    0.0000 C   0  0  0  0  0  0  0  0  0  0  0  0
    2.4625  -17.5292    0.0000 C   0  0  0  0  0  0  0  0  0  0  0  0
    6.7292  -20.0292    0.0000 C   0  0  0  0  0  0  0  0  0  0  0  0
  2  1  1  0
  3  1  1  0
  4  1  2  0
  5  2  1  0
  6  2  2  0
  7  4  1  0
  8  7  2  0
  9 14  1  0
 10  7  1  0
 11  3  1  0
 12  5  2  0
 13  6  1  0
 14 18  1  0
 15 10  1  0
 16 11  1  0
 17 11  1  0
 18 16  1  0
 19 13  2  0
  5  8  1  0
 12 19  1  0
M  END
> <chembl_id>
CHEMBL506

> <chembl_pref_name>
PRIMAQUINE

$$$$

     RDKit          2D

 15 15  0  0  1  0  0  0  0  0999 V2000
   -4.3178   -3.5982    0.0000 C   0  0  0  0  0  0  0  0  0  0  0  0
   -5.0323   -3.1857    0.0000 C   0  0  0  0  0  0  0  0  0  0  0  0
   -5.7467   -3.5982    0.0000 C   0  0  0  0  0  0  0  0  0  0  0  0
   -2.8889   -4.4232    0.0000 C   0  0  0  0  0  0  0  0  0  0  0  0
   -5.7467   -4.4232    0.0000 C   0  0  0  0  0  0  0  0  0  0  0  0
   -4.3178   -4.4232    0.0000 C   0  0  0  0  0  0  0  0  0  0  0  0
   -5.0323   -4.8357    0.0000 C   0  0  0  0  0  0  0  0  0  0  0  0
   -3.6033   -3.1857    0.0000 C   0  0  0  0  0  0  0  0  0  0  0  0
   -2.8889   -3.5982    0.0000 C   0  0  0  0  0  0  0  0  0  0  0  0
   -5.0323   -2.3607    0.0000 F   0  0  0  0  0  0  0  0  0  0  0  0
   -2.1744   -4.8357    0.0000 O   0  0  0  0  0  0  0  0  0  0  0  0
   -2.1744   -3.1857    0.0000 N   0  0  0  0  0  0  0  0  0  0  0  0
   -3.6033   -4.8357    0.0000 O   0  0  0  0  0  0  0  0  0  0  0  0
   -6.4612   -4.8357    0.0000 O   0  0  0  0  0  0  0  0  0  0  0  0
   -5.0323   -5.6607    0.0000 O   0  0  0  0  0  0  0  0  0  0  0  0
  2  1  2  0
  3  2  1  0
  4  9  1  0
  5  7  1  0
  6  1  1  0
  7  6  2  0
  8  1  1  0
  9  8  1  0
 10  2  1  0
 11  4  2  0
  9 12  1  6
 13  4  1  0
 14  5  1  0
 15  7  1  0
  3  5  2  0
M  ISO  1  10  18
M  END
> <chembl_id>
CHEMBL3400972

> <chembl_pref_name>
FLUORODOPA F 18

$$$$

     RDKit          2D

 11 12  0  0  0  0  0  0  0  0999 V2000
  -19.8221  -14.2607    0.0000 C   0  0  0  0  0  0  0  0  0  0  0  0
  -19.8221  -13.4357    0.0000 C   0  0  0  0  0  0  0  0  0  0  0  0
  -20.5366  -13.0232    0.0000 C   0  0  0  0  0  0  0  0  0  0  0  0
  -21.2511  -13.4357    0.0000 C   0  0  0  0  0  0  0  0  0  0  0  0
  -21.2511  -14.2607    0.0000 C   0  0  0  0  0  0  0  0  0  0  0  0
  -20.5366  -14.6732    0.0000 C   0  0  0  0  0  0  0  0  0  0  0  0
  -19.0375  -14.5157    0.0000 C   0  0  0  0  0  0  0  0  0  0  0  0
  -18.5526  -13.8482    0.0000 O   0  0  0  0  0  0  0  0  0  0  0  0
  -19.0375  -13.1808    0.0000 B   0  0  0  0  0  0  0  0  0  0  0  0
  -18.7825  -12.3962    0.0000 O   0  0  0  0  0  0  0  0  0  0  0  0
  -21.9656  -14.6732    0.0000 F   0  0  0  0  0  0  0  0  0  0  0  0
  6  1  1  0
  2  3  1  0
  3  4  2  0
  4  5  1  0
  5  6  2  0
  2  9  1  0
  2  1  2  0
  1  7  1  0
  7  8  1  0
  8  9  1  0
  9 10  1  0
  5 11  1  0
M  END
> <chembl_id>
CHEMBL443052

> <chembl_pref_name>
TAVABOROLE

$$$$

     RDKit          2D

 21 22  0  0  0  0  0  0  0  0999 V2000
   -1.0000   -0.4167    0.0000 C   0  0  0  0  0  0  0  0  0  0  0  0
    0.3292   -0.4167    0.0000 C   0  0  0  0  0  0  0  0  0  0  0  0
   -3.0083   -1.5792    0.0000 N   0  0  0  0  0  0  0  0  0  0  0  0
   -1.6708   -1.5792    0.0000 C   0  0  0  0  0  0  0  0  0  0  0  0
    0.3292    0.9208    0.0000 C   0  0  0  0  0  0  0  0  0  0  0  0
    1.6667   -0.4167    0.0000 C   0  0  0  0  0  0  0  0  0  0  0  0
   -3.0458   -2.9167    0.0000 C   0  0  0  0  0  0  0  0  0  0  0  0
   -4.3458   -1.5417    0.0000 C   0  0  0  0  0  0  0  0  0  0  0  0
   -3.0083   -0.2042    0.0000 C   0  0  0  0  0  0  0  0  0  0  0  0
   -1.0000   -2.7375    0.0000 C   0  0  0  0  0  0  0  0  0  0  0  0
    1.4917    1.5833    0.0000 C   0  0  0  0  0  0  0  0  0  0  0  0
   -0.7958    1.5833    0.0000 C   0  0  0  0  0  0  0  0  0  0  0  0
    2.3375    0.7458    0.0000 C   0  0  0  0  0  0  0  0  0  0  0  0
    2.3375   -1.5792    0.0000 C   0  0  0  0  0  0  0  0  0  0  0  0
   -4.1708   -3.5792    0.0000 C   0  0  0  0  0  0  0  0  0  0  0  0
    1.4917    2.9208    0.0000 C   0  0  0  0  0  0  0  0  0  0  0  0
   -0.7958    2.9208    0.0000 C   0  0  0  0  0  0  0  0  0  0  0  0
    3.6750    0.7458    0.0000 C   0  0  0  0  0  0  0  0  0  0  0  0
    3.6750   -1.5792    0.0000 C   0  0  0  0  0  0  0  0  0  0  0  0
    4.3417   -0.4167    0.0000 C   0  0  0  0  0  0  0  0  0  0  0  0
    0.3292    3.5875    0.0000 C   0  0  0  0  0  0  0  0  0  0  0  0
  2  1  1  0
  3  4  1  0
  4  1  1  0
  5  2  1  0
  6  2  1  0
  7  3  1  0
  8  3  1  0
  9  3  1  0
 10  4  1  0
 11  5  2  0
 12  5  1  0
 13  6  1  0
 14  6  2  0
 15  7  1  0
 16 11  1  0
 17 12  2  0
 18 13  2  0
 19 14  1  0
 20 18  1  0
 21 17  1  0
 21 16  2  0
 19 20  2  0
M  CHG  1   3   1
M  END
> <chembl_id>
CHEMBL2110805

> <chembl_pref_name>
EMEPRONIUM

$$$$

     RDKit          2D

 15 14  0  0  0  0  0  0  0  0999 V2000
    1.6667   -2.1042    0.0000 C   0  0  0  0  0  0  0  0  0  0  0  0
    1.6667   -1.3917    0.0000 O   0  0  0  0  0  0  0  0  0  0  0  0
   -0.1708   -3.1667    0.0000 O   0  0  0  0  0  0  0  0  0  0  0  0
   -0.1708   -2.4625    0.0000 C   0  0  0  0  0  0  0  0  0  0  0  0
    1.0542   -2.4625    0.0000 C   0  0  0  0  0  0  0  0  0  0  0  0
    0.4417   -2.1042    0.0000 C   0  0  0  0  0  0  0  0  0  0  0  0
    2.2792   -2.4625    0.0000 O   0  0  0  0  0  0  0  0  0  0  0  0
   -1.4000   -2.4542    0.0000 N   0  0  0  0  0  0  0  0  0  0  0  0
   -0.7875   -2.1042    0.0000 C   0  0  0  0  0  0  0  0  0  0  0  0
    2.8917   -2.1042    0.0000 C   0  0  0  0  0  0  0  0  0  0  0  0
    3.5042   -2.4625    0.0000 C   0  0  0  0  0  0  0  0  0  0  0  0
    2.2667   -3.1417    0.0000 C   0  0  0  0  0  0  0  0  0  0  0  0
    2.8667   -3.5125    0.0000 C   0  0  0  0  0  0  0  0  0  0  0  0
    3.4917   -3.1667    0.0000 C   0  0  0  0  0  0  0  0  0  0  0  0
    1.6417   -3.4917    0.0000 C   0  0  0  0  0  0  0  0  0  0  0  0
  2  1  2  0
  3  4  2  0
  4  6  1  0
  5  1  1  0
  6  5  1  0
  7  1  1  0
  8  9  1  0
  9  4  1  0
 10  7  1  0
 11 10  1  0
 12 13  1  0
 13 14  1  0
 14 11  1  0
 15 12  1  0
M  END
> <chembl_id>
CHEMBL1201784

> <chembl_pref_name>
HEXAMINOLEVULINATE

$$$$

     RDKit          2D

 14 13  0  0  1  0  0  0  0  0999 V2000
    2.4599    1.8293    0.0000 O   0  0  0  0  0  0  0  0  0  0  0  0
    1.2224    2.5438    0.0000 O   0  0  0  0  0  0  0  0  0  0  0  0
    4.9349    0.4004    0.0000 O   0  0  0  0  0  0  0  0  0  0  0  0
    3.6974   -0.3141    0.0000 O   0  0  0  0  0  0  0  0  0  0  0  0
    1.6349    0.4004    0.0000 N   0  0  0  0  0  0  0  0  0  0  0  0
    2.8724    1.1149    0.0000 C   0  0  0  0  0  0  0  0  0  0  0  0
    2.4599    0.4004    0.0000 C   0  0  0  0  0  0  0  0  0  0  0  0
    3.6974    1.1149    0.0000 C   0  0  0  0  0  0  0  0  0  0  0  0
    1.6349    1.8293    0.0000 C   0  0  0  0  0  0  0  0  0  0  0  0
    4.1099    0.4004    0.0000 C   0  0  0  0  0  0  0  0  0  0  0  0
    1.6349    1.2254    0.0000 C   0  0  0  0  0  0  0  0  0  0  0  0
    1.6349   -0.4246    0.0000 C   0  0  0  0  0  0  0  0  0  0  0  0
    0.8099    0.4004    0.0000 C   0  0  0  0  0  0  0  0  0  0  0  0
    1.2224    1.1149    0.0000 C   0  0  0  0  0  0  0  0  0  0  0  0
  6  1  1  6
  1  9  1  0
  2  9  2  0
  3 10  2  0
  4 10  1  0
  5  7  1  0
  5 11  1  0
  5 12  1  0
  5 13  1  0
  6  7  1  0
  6  8  1  0
  8 10  1  0
  9 14  1  0
M  CHG  2   4  -1   5   1
M  END
> <chembl_id>
CHEMBL1697733

> <chembl_pref_name>
ACETYLCARNITINE

$$$$

     RDKit          2D

 20 21  0  0  0  0  0  0  0  0999 V2000
    0.4917    0.4000    0.0000 C   0  0  0  0  0  0  0  0  0  0  0  0
   -0.4500    0.9375    0.0000 O   0  0  0  0  0  0  0  0  0  0  0  0
    1.4500    0.9625    0.0000 C   0  0  0  0  0  0  0  0  0  0  0  0
   -1.4458    0.3708    0.0000 C   0  0  0  0  0  0  0  0  0  0  0  0
   -2.3708   -1.2542    0.0000 C   0  0  0  0  0  0  0  0  0  0  0  0
    0.4917   -0.6792    0.0000 O   0  0  0  0  0  0  0  0  0  0  0  0
   -1.4458   -0.7125    0.0000 C   0  0  0  0  0  0  0  0  0  0  0  0
    2.4042    0.4333    0.0000 C   0  0  0  0  0  0  0  0  0  0  0  0
   -3.3458   -0.6792    0.0000 C   0  0  0  0  0  0  0  0  0  0  0  0
   -2.3833    0.9375    0.0000 C   0  0  0  0  0  0  0  0  0  0  0  0
   -3.3458    0.4000    0.0000 C   0  0  0  0  0  0  0  0  0  0  0  0
    1.4500    2.0625    0.0000 O   0  0  0  0  0  0  0  0  0  0  0  0
   -2.9333   -2.2292    0.0000 C   0  0  0  0  0  0  0  0  0  0  0  0
   -1.8208   -2.2167    0.0000 C   0  0  0  0  0  0  0  0  0  0  0  0
    3.3667    0.9833    0.0000 C   0  0  0  0  0  0  0  0  0  0  0  0
    2.4042   -0.6667    0.0000 C   0  0  0  0  0  0  0  0  0  0  0  0
   -4.3458    0.9500    0.0000 C   0  0  0  0  0  0  0  0  0  0  0  0
    4.3417    0.4458    0.0000 C   0  0  0  0  0  0  0  0  0  0  0  0
    3.3792   -1.2292    0.0000 C   0  0  0  0  0  0  0  0  0  0  0  0
    4.3417   -0.6792    0.0000 C   0  0  0  0  0  0  0  0  0  0  0  0
  2  1  1  0
  3  1  1  0
  4  2  1  0
  5  7  1  0
  6  1  2  0
  7  4  1  0
  8  3  1  0
  9 11  1  0
 10  4  1  0
 11 10  1  0
 12  3  1  0
 13  5  1  0
 14  5  1  0
 15  8  1  0
 16  8  2  0
 17 11  1  0
 18 15  2  0
 19 16  1  0
 20 19  2  0
 18 20  1  0
  5  9  1  0
M  END
> <chembl_id>
CHEMBL1480987

> <chembl_pref_name>
CYCLANDELATE

$$$$

     RDKit          2D

  4  3  0  0  0  0  0  0  0  0999 V2000
    0.5760    5.4977    0.0000 Al  0  0  0  0  0  3  0  0  0  0  0  0
    0.5760    6.9977    0.0000 Cl  0  0  0  0  0  0  0  0  0  0  0  0
   -0.7230    4.7477    0.0000 Cl  0  0  0  0  0  0  0  0  0  0  0  0
    1.8751    4.7477    0.0000 Cl  0  0  0  0  0  0  0  0  0  0  0  0
  2  1  1  0
  3  1  1  0
  4  1  1  0
M  END
> <chembl_id>
CHEMBL3833401

> <chembl_pref_name>
ALUMINUM CHLORIDE

$$$$

     RDKit          2D

 14 14  0  0  0  0  0  0  0  0999 V2000
    6.0167   -6.0500    0.0000 C   0  0  0  0  0  0  0  0  0  0  0  0
    5.4000   -6.4125    0.0000 C   0  0  0  0  0  0  0  0  0  0  0  0
    4.7750   -5.3375    0.0000 C   0  0  0  0  0  0  0  0  0  0  0  0
    4.7750   -6.0500    0.0000 C   0  0  0  0  0  0  0  0  0  0  0  0
    6.0000   -5.3375    0.0000 O   0  0  0  0  0  0  0  0  0  0  0  0
    4.1625   -5.0000    0.0000 C   0  0  0  0  0  0  0  0  0  0  0  0
    5.3792   -4.9792    0.0000 C   0  0  0  0  0  0  0  0  0  0  0  0
    4.7667   -3.9375    0.0000 C   0  0  0  0  0  0  0  0  0  0  0  0
    6.6292   -6.4167    0.0000 O   0  0  0  0  0  0  0  0  0  0  0  0
    5.3542   -4.2667    0.0000 C   0  0  0  0  0  0  0  0  0  0  0  0
    4.1417   -4.3000    0.0000 C   0  0  0  0  0  0  0  0  0  0  0  0
    4.7917   -3.2292    0.0000 Cl  0  0  0  0  0  0  0  0  0  0  0  0
    3.5167   -6.0500    0.0000 N   0  0  0  0  0  0  0  0  0  0  0  0
    4.1417   -6.4125    0.0000 C   0  0  0  0  0  0  0  0  0  0  0  0
  2  1  1  0
  3  4  1  0
  4  2  1  0
  5  1  2  0
  6  3  1  0
  7  3  2  0
  8 10  2  0
  9  1  1  0
 10  7  1  0
 11  6  2  0
 12  8  1  0
 13 14  1  0
 14  4  1  0
  8 11  1  0
M  END
> <chembl_id>
CHEMBL701

> <chembl_pref_name>
BACLOFEN

$$$$

     RDKit          2D

 20 20  0  0  0  0  0  0  0  0999 V2000
    3.7125   -6.5000    0.0000 Cl  0  0  0  0  0  0  0  0  0  0  0  0
    5.4250   -5.5042    0.0000 C   0  0  0  0  0  0  0  0  0  0  0  0
    6.0292   -5.1375    0.0000 C   0  0  0  0  0  0  0  0  0  0  0  0
    5.4292   -6.2042    0.0000 C   0  0  0  0  0  0  0  0  0  0  0  0
    2.9625   -5.5167    0.0000 N   0  0  0  0  0  0  0  0  0  0  0  0
    4.8125   -5.1417    0.0000 O   0  0  0  0  0  0  0  0  0  0  0  0
    4.1917   -5.5125    0.0000 C   0  0  0  0  0  0  0  0  0  0  0  0
    3.5792   -5.1625    0.0000 C   0  0  0  0  0  0  0  0  0  0  0  0
    6.0417   -6.5500    0.0000 C   0  0  0  0  0  0  0  0  0  0  0  0
    4.8250   -6.5625    0.0000 C   0  0  0  0  0  0  0  0  0  0  0  0
    6.0292   -4.4292    0.0000 C   0  0  0  0  0  0  0  0  0  0  0  0
    6.6542   -5.4792    0.0000 C   0  0  0  0  0  0  0  0  0  0  0  0
    2.3417   -5.1667    0.0000 C   0  0  0  0  0  0  0  0  0  0  0  0
    2.9667   -6.2167    0.0000 C   0  0  0  0  0  0  0  0  0  0  0  0
    4.8292   -7.2750    0.0000 C   0  0  0  0  0  0  0  0  0  0  0  0
    6.6417   -4.0667    0.0000 C   0  0  0  0  0  0  0  0  0  0  0  0
    7.2750   -5.1292    0.0000 C   0  0  0  0  0  0  0  0  0  0  0  0
    6.0500   -7.2667    0.0000 C   0  0  0  0  0  0  0  0  0  0  0  0
    7.2667   -4.4167    0.0000 C   0  0  0  0  0  0  0  0  0  0  0  0
    5.4375   -7.6292    0.0000 C   0  0  0  0  0  0  0  0  0  0  0  0
  3  2  1  0
  4  2  1  0
  5  8  1  0
  6  2  1  0
  7  6  1  0
  8  7  1  0
  9  4  1  0
 10  4  2  0
 11  3  1  0
 12  3  2  0
 13  5  1  0
 14  5  1  0
 15 10  1  0
 16 11  2  0
 17 12  1  0
 18  9  2  0
 19 16  1  0
 20 15  2  0
 20 18  1  0
 19 17  2  0
M  END
> <chembl_id>
CHEMBL1620

> <chembl_pref_name>
DIPHENHYDRAMINE HYDROCHLORIDE

$$$$

     RDKit          2D

  1  0  0  0  0  0  0  0  0  0999 V2000
    5.6250   -4.4196    0.0000 Ca  0  0  0  0  0  2  0  0  0  0  0  0
M  END
> <chembl_id>
CHEMBL2146121

> <chembl_pref_name>
CALCIUM

$$$$

     RDKit          2D

 16 17  0  0  0  0  0  0  0  0999 V2000
   -2.2333    0.0375    0.0000 C   0  0  0  0  0  0  0  0  0  0  0  0
   -1.1625    0.6375    0.0000 O   0  0  0  0  0  0  0  0  0  0  0  0
    0.9417    0.6208    0.0000 C   0  0  0  0  0  0  0  0  0  0  0  0
    1.9875   -0.0917    0.0000 N   0  0  0  0  0  0  0  0  0  0  0  0
   -0.1083    0.0333    0.0000 C   0  0  0  0  0  0  0  0  0  0  0  0
    1.3542    1.8083    0.0000 N   0  0  0  0  0  0  0  0  0  0  0  0
   -2.2333   -1.1875    0.0000 C   0  0  0  0  0  0  0  0  0  0  0  0
   -3.2958    0.6583    0.0000 C   0  0  0  0  0  0  0  0  0  0  0  0
   -3.2958    1.8750    0.0000 Cl  0  0  0  0  0  0  0  0  0  0  0  0
   -1.1625   -1.7875    0.0000 Cl  0  0  0  0  0  0  0  0  0  0  0  0
    2.9917    0.6208    0.0000 C   0  0  0  0  0  0  0  0  0  0  0  0
    2.5750    1.8083    0.0000 C   0  0  0  0  0  0  0  0  0  0  0  0
   -4.3458   -1.1875    0.0000 C   0  0  0  0  0  0  0  0  0  0  0  0
   -4.3458    0.0375    0.0000 C   0  0  0  0  0  0  0  0  0  0  0  0
   -3.2958   -1.8125    0.0000 C   0  0  0  0  0  0  0  0  0  0  0  0
   -0.1083   -1.1875    0.0000 C   0  0  0  0  0  0  0  0  0  0  0  0
  2  1  1  0
  3  5  1  0
  4  3  2  0
  5  2  1  0
  6  3  1  0
  7  1  1  0
  8  1  2  0
  9  8  1  0
 10  7  1  0
 11  4  1  0
 12  6  1  0
 13 14  2  0
 14  8  1  0
 15  7  2  0
 16  5  1  0
 15 13  1  0
 12 11  1  0
M  END
> <chembl_id>
CHEMBL17860

> <chembl_pref_name>
LOFEXIDINE

$$$$

     RDKit          2D

  2  0  0  0  0  0  0  0  0  0999 V2000
    0.6125   -0.0542    0.0000 K   0  0  0  0  0 15  0  0  0  0  0  0
   -0.8208   -0.0542    0.0000 Br  0  0  0  0  0  0  0  0  0  0  0  0
M  CHG  2   1   1   2  -1
M  END
> <chembl_id>
CHEMBL1644030

> <chembl_pref_name>
POTASSIUM BROMIDE

$$$$

     RDKit          2D

 20 22  0  0  0  0  0  0  0  0999 V2000
    3.0750   -2.4000    0.0000 N   0  0  0  0  0  0  0  0  0  0  0  0
    4.3167   -2.4042    0.0000 C   0  0  0  0  0  0  0  0  0  0  0  0
    4.5167   -1.7292    0.0000 N   0  0  0  0  0  0  0  0  0  0  0  0
    3.6917   -2.7542    0.0000 C   0  0  0  0  0  0  0  0  0  0  0  0
    4.8917   -2.8042    0.0000 N   0  0  0  0  0  0  0  0  0  0  0  0
    3.0792   -1.6917    0.0000 C   0  0  0  0  0  0  0  0  0  0  0  0
    2.4542   -2.7542    0.0000 C   0  0  0  0  0  0  0  0  0  0  0  0
    2.4625   -1.3417    0.0000 C   0  0  0  0  0  0  0  0  0  0  0  0
    5.2375   -1.7292    0.0000 C   0  0  0  0  0  0  0  0  0  0  0  0
    5.4667   -2.3917    0.0000 C   0  0  0  0  0  0  0  0  0  0  0  0
    1.8542   -2.4000    0.0000 C   0  0  0  0  0  0  0  0  0  0  0  0
    2.4542   -3.4667    0.0000 C   0  0  0  0  0  0  0  0  0  0  0  0
    2.4667   -0.6250    0.0000 C   0  0  0  0  0  0  0  0  0  0  0  0
    1.8542   -1.6917    0.0000 C   0  0  0  0  0  0  0  0  0  0  0  0
    1.2375   -2.7542    0.0000 C   0  0  0  0  0  0  0  0  0  0  0  0
    1.8542   -3.8167    0.0000 C   0  0  0  0  0  0  0  0  0  0  0  0
    1.8625   -0.2667    0.0000 C   0  0  0  0  0  0  0  0  0  0  0  0
    1.2375   -1.3375    0.0000 C   0  0  0  0  0  0  0  0  0  0  0  0
    1.2292   -3.4625    0.0000 C   0  0  0  0  0  0  0  0  0  0  0  0
    1.2417   -0.6292    0.0000 C   0  0  0  0  0  0  0  0  0  0  0  0
  2  4  1  0
  3  2  2  0
  4  1  1  0
  5  2  1  0
  6  1  1  0
  7  1  1  0
  8  6  1  0
  9  3  1  0
 10  5  1  0
 11  7  2  0
 12  7  1  0
 13  8  2  0
 14  8  1  0
 15 11  1  0
 16 12  2  0
 17 13  1  0
 18 14  2  0
 19 15  2  0
 20 17  2  0
 16 19  1  0
 10  9  1  0
 18 20  1  0
M  END
> <chembl_id>
CHEMBL1305

> <chembl_pref_name>
ANTAZOLINE

$$$$

     RDKit          2D

 14 14  0  0  1  0  0  0  0  0999 V2000
    5.3167   -5.4375    0.0000 N   0  0  0  0  0  0  0  0  0  0  0  0
    5.3167   -4.7292    0.0000 C   0  0  0  0  0  0  0  0  0  0  0  0
    5.8917   -5.8542    0.0000 C   0  0  0  0  0  0  0  0  0  0  0  0
    6.5042   -5.4917    0.0000 C   0  0  0  0  0  0  0  0  0  0  0  0
    4.7042   -4.3750    0.0000 C   0  0  0  0  0  0  0  0  0  0  0  0
    5.9292   -4.3750    0.0000 O   0  0  0  0  0  0  0  0  0  0  0  0
    6.4917   -4.7875    0.0000 O   0  0  0  0  0  0  0  0  0  0  0  0
    4.7417   -5.8542    0.0000 C   0  0  0  0  0  0  0  0  0  0  0  0
    7.1167   -5.8417    0.0000 O   0  0  0  0  0  0  0  0  0  0  0  0
    3.4792   -4.3750    0.0000 S   0  0  0  0  0  0  0  0  0  0  0  0
    4.0917   -4.7292    0.0000 C   0  0  0  0  0  0  0  0  0  0  0  0
    5.6750   -6.5292    0.0000 C   0  0  0  0  0  0  0  0  0  0  0  0
    4.9625   -6.5292    0.0000 C   0  0  0  0  0  0  0  0  0  0  0  0
    4.7042   -3.6667    0.0000 C   0  0  0  0  0  0  0  0  0  0  0  0
  2  1  1  0
  3  1  1  0
  3  4  1  6
  5  2  1  0
  6  2  2  0
  7  4  2  0
  8  1  1  0
  9  4  1  0
 10 11  1  0
 11  5  1  0
 12  3  1  0
 13  8  1  0
  5 14  1  1
 12 13  1  0
M  END
> <chembl_id>
CHEMBL1560

> <chembl_pref_name>
CAPTOPRIL

$$$$

     RDKit          2D

 15 14  0  0  0  0  0  0  0  0999 V2000
    5.9292   -7.3125    0.0000 O   0  0  0  0  0  0  0  0  0  0  0  0
    5.7042   -5.9417    0.0000 P   0  0  0  0  0  0  0  0  0  0  0  0
    5.6917   -5.2375    0.0000 N   0  0  0  0  0  0  0  0  0  0  0  0
    5.0042   -5.9417    0.0000 N   0  0  0  0  0  0  0  0  0  0  0  0
    6.3167   -6.2917    0.0000 O   0  0  0  0  0  0  0  0  0  0  0  0
    5.4667   -6.6167    0.0000 O   0  0  0  0  0  0  0  0  0  0  0  0
    4.6417   -6.5667    0.0000 C   0  0  0  0  0  0  0  0  0  0  0  0
    4.6417   -5.3417    0.0000 C   0  0  0  0  0  0  0  0  0  0  0  0
    3.5875   -7.1917    0.0000 Cl  0  0  0  0  0  0  0  0  0  0  0  0
    3.5667   -4.7292    0.0000 Cl  0  0  0  0  0  0  0  0  0  0  0  0
    6.3125   -4.8750    0.0000 C   0  0  0  0  0  0  0  0  0  0  0  0
    6.9375   -5.2250    0.0000 C   0  0  0  0  0  0  0  0  0  0  0  0
    6.9375   -5.9292    0.0000 C   0  0  0  0  0  0  0  0  0  0  0  0
    3.9417   -6.5667    0.0000 C   0  0  0  0  0  0  0  0  0  0  0  0
    3.9292   -5.3417    0.0000 C   0  0  0  0  0  0  0  0  0  0  0  0
  3  2  1  0
  4  2  1  0
  5  2  1  0
  6  2  2  0
  7  4  1  0
  8  4  1  0
  9 14  1  0
 10 15  1  0
 11  3  1  0
 12 13  1  0
 13  5  1  0
 14  7  1  0
 15  8  1  0
 12 11  1  0
M  END
> <chembl_id>
CHEMBL1200796

> <chembl_pref_name>
CYCLOPHOSPHAMIDE

$$$$

     RDKit          2D

  6  5  0  0  0  0  0  0  0  0999 V2000
   -0.6750    0.0375    0.0000 C   0  0  0  0  0  0  0  0  0  0  0  0
   -1.3958    1.2958    0.0000 O   0  0  0  0  0  0  0  0  0  0  0  0
    0.7500    0.0375    0.0000 C   0  0  0  0  0  0  0  0  0  0  0  0
   -1.3958   -1.1917    0.0000 O   0  0  0  0  0  0  0  0  0  0  0  0
    1.4667    1.2958    0.0000 O   0  0  0  0  0  0  0  0  0  0  0  0
    1.4667   -1.1917    0.0000 C   0  0  0  0  0  0  0  0  0  0  0  0
  2  1  2  0
  3  1  1  0
  4  1  1  0
  5  3  1  0
  6  3  1  0
M  END
> <chembl_id>
CHEMBL1200559

> <chembl_pref_name>
LACTIC ACID

$$$$

     RDKit          2D

 14 15  0  0  0  0  0  0  0  0999 V2000
    3.3042   -3.4542    0.0000 C   0  0  0  0  0  0  0  0  0  0  0  0
    4.3667   -4.0667    0.0000 C   0  0  0  0  0  0  0  0  0  0  0  0
    3.6500   -4.0667    0.0000 N   0  0  0  0  0  0  0  0  0  0  0  0
    3.5167   -2.7875    0.0000 N   0  0  0  0  0  0  0  0  0  0  0  0
    2.5917   -3.4542    0.0000 N   0  0  0  0  0  0  0  0  0  0  0  0
    4.7250   -3.4542    0.0000 C   0  0  0  0  0  0  0  0  0  0  0  0
    4.7250   -4.6875    0.0000 C   0  0  0  0  0  0  0  0  0  0  0  0
    4.3542   -5.3042    0.0000 Cl  0  0  0  0  0  0  0  0  0  0  0  0
    4.3667   -2.8292    0.0000 Cl  0  0  0  0  0  0  0  0  0  0  0  0
    2.9417   -2.3750    0.0000 C   0  0  0  0  0  0  0  0  0  0  0  0
    2.3750   -2.7792    0.0000 C   0  0  0  0  0  0  0  0  0  0  0  0
    5.7792   -4.0667    0.0000 C   0  0  0  0  0  0  0  0  0  0  0  0
    5.4375   -4.6875    0.0000 C   0  0  0  0  0  0  0  0  0  0  0  0
    5.4375   -3.4542    0.0000 C   0  0  0  0  0  0  0  0  0  0  0  0
  2  3  1  0
  3  1  1  0
  4  1  2  0
  5  1  1  0
  6  2  1  0
  7  2  2  0
  8  7  1  0
  9  6  1  0
 10  4  1  0
 11  5  1  0
 12 13  2  0
 13  7  1  0
 14  6  2  0
 10 11  1  0
 12 14  1  0
M  END
> <chembl_id>
CHEMBL134

> <chembl_pref_name>
CLONIDINE

$$$$

     RDKit          2D

 13 14  0  0  0  0  0  0  0  0999 V2000
    4.7667   -5.7417    0.0000 C   0  0  0  0  0  0  0  0  0  0  0  0
    4.1750   -4.6792    0.0000 N   0  0  0  0  0  0  0  0  0  0  0  0
    4.1417   -6.0917    0.0000 O   0  0  0  0  0  0  0  0  0  0  0  0
    4.7792   -5.0375    0.0000 C   0  0  0  0  0  0  0  0  0  0  0  0
    5.3750   -6.1000    0.0000 C   0  0  0  0  0  0  0  0  0  0  0  0
    3.5417   -5.0292    0.0000 C   0  0  0  0  0  0  0  0  0  0  0  0
    3.5375   -5.7292    0.0000 C   0  0  0  0  0  0  0  0  0  0  0  0
    5.3625   -6.8042    0.0000 C   0  0  0  0  0  0  0  0  0  0  0  0
    6.0000   -5.7500    0.0000 C   0  0  0  0  0  0  0  0  0  0  0  0
    5.4042   -4.6917    0.0000 C   0  0  0  0  0  0  0  0  0  0  0  0
    6.6042   -6.1042    0.0000 C   0  0  0  0  0  0  0  0  0  0  0  0
    5.9667   -7.1625    0.0000 C   0  0  0  0  0  0  0  0  0  0  0  0
    6.5917   -6.8125    0.0000 C   0  0  0  0  0  0  0  0  0  0  0  0
  2  4  1  0
  3  1  1  0
  4  1  1  0
  5  1  1  0
  6  2  1  0
  7  3  1  0
  8  5  1  0
  9  5  2  0
 10  4  1  0
 11  9  1  0
 12  8  2  0
 13 12  1  0
  6  7  1  0
 13 11  2  0
M  END
> <chembl_id>
CHEMBL1201208

> <chembl_pref_name>
PHENMETRAZINE

$$$$

     RDKit          2D

 16 16  0  0  0  0  0  0  0  0999 V2000
   -1.2083    0.8958    0.0000 C   0  0  0  0  0  0  0  0  0  0  0  0
   -1.9250    0.4833    0.0000 C   0  0  0  0  0  0  0  0  0  0  0  0
    0.2208    0.8958    0.0000 N   0  0  0  0  0  0  0  0  0  0  0  0
   -0.4958    0.4833    0.0000 C   0  0  0  0  0  0  0  0  0  0  0  0
   -1.9250   -0.3417    0.0000 C   0  0  0  0  0  0  0  0  0  0  0  0
   -1.2083    1.7208    0.0000 O   0  0  0  0  0  0  0  0  0  0  0  0
    0.9333    0.4833    0.0000 C   0  0  0  0  0  0  0  0  0  0  0  0
   -2.6375   -0.7542    0.0000 C   0  0  0  0  0  0  0  0  0  0  0  0
   -2.6375   -1.5792    0.0000 Cl  0  0  0  0  0  0  0  0  0  0  0  0
   -2.6375    0.8958    0.0000 C   0  0  0  0  0  0  0  0  0  0  0  0
   -3.3542    0.4833    0.0000 C   0  0  0  0  0  0  0  0  0  0  0  0
    0.9333   -0.3417    0.0000 C   0  0  0  0  0  0  0  0  0  0  0  0
    1.6500    0.8958    0.0000 C   0  0  0  0  0  0  0  0  0  0  0  0
    0.9333    1.3083    0.0000 C   0  0  0  0  0  0  0  0  0  0  0  0
   -3.3542   -0.3417    0.0000 C   0  0  0  0  0  0  0  0  0  0  0  0
   -0.4968   -0.3417    0.0000 C   0  0  0  0  0  0  0  0  0  0  0  0
  2  1  1  0
  3  4  1  0
  4  1  1  0
  5  2  2  0
  6  1  2  0
  7  3  1  0
  8  5  1  0
  9  8  1  0
 10  2  1  0
 11 10  2  0
 12  7  1  0
 13  7  1  0
 14  7  1  0
 15 11  1  0
 15  8  2  0
  4 16  1  0
M  END
> <chembl_id>
CHEMBL894

> <chembl_pref_name>
BUPROPION

$$$$

     RDKit          2D

 11  9  0  0  0  0  0  0  0  0999 V2000
    4.1583   -0.5125    0.0000 Cl  0  0  0  0  0  0  0  0  0  0  0  0
    0.2292   -0.0292    0.0000 C   0  0  0  0  0  0  0  0  0  0  0  0
    0.2542    0.6792    0.0000 O   0  0  0  0  0  0  0  0  0  0  0  0
    2.0292   -1.1583    0.0000 O   0  0  0  0  0  0  0  0  0  0  0  0
    2.0542   -0.4458    0.0000 C   0  0  0  0  0  0  0  0  0  0  0  0
    0.8250   -0.4042    0.0000 C   0  0  0  0  0  0  0  0  0  0  0  0
    1.4542   -0.0708    0.0000 C   0  0  0  0  0  0  0  0  0  0  0  0
   -0.4000   -0.3542    0.0000 O   0  0  0  0  0  0  0  0  0  0  0  0
    3.2833   -0.4958    0.0000 N   0  0  0  0  0  0  0  0  0  0  0  0
    2.6875   -0.1167    0.0000 C   0  0  0  0  0  0  0  0  0  0  0  0
   -1.0000    0.0208    0.0000 C   0  0  0  0  0  0  0  0  0  0  0  0
  3  2  2  0
  4  5  2  0
  5  7  1  0
  6  2  1  0
  7  6  1  0
  8  2  1  0
  9 10  1  0
 10  5  1  0
 11  8  1  0
M  END
> <chembl_id>
CHEMBL1201093

> <chembl_pref_name>
METHYL AMINOLEVULINATE HYDROCHLORIDE

$$$$

     RDKit          2D

 14 15  0  0  0  0  0  0  0  0999 V2000
    1.1792   -0.9875    0.0000 C   0  0  0  0  0  0  0  0  0  0  0  0
    0.3667    0.2125    0.0000 N   0  0  0  0  0  0  0  0  0  0  0  0
    1.2542    1.3000    0.0000 N   0  0  0  0  0  0  0  0  0  0  0  0
    2.5417   -0.6000    0.0000 C   0  0  0  0  0  0  0  0  0  0  0  0
    2.5625    0.8208    0.0000 C   0  0  0  0  0  0  0  0  0  0  0  0
    0.7167   -2.3500    0.0000 O   0  0  0  0  0  0  0  0  0  0  0  0
   -1.0333    0.2125    0.0000 C   0  0  0  0  0  0  0  0  0  0  0  0
    0.9125    2.7083    0.0000 C   0  0  0  0  0  0  0  0  0  0  0  0
    3.9042    1.5375    0.0000 C   0  0  0  0  0  0  0  0  0  0  0  0
   -1.7708   -1.0250    0.0000 C   0  0  0  0  0  0  0  0  0  0  0  0
   -1.7708    1.4583    0.0000 C   0  0  0  0  0  0  0  0  0  0  0  0
   -3.1708   -1.0250    0.0000 C   0  0  0  0  0  0  0  0  0  0  0  0
   -3.1708    1.4583    0.0000 C   0  0  0  0  0  0  0  0  0  0  0  0
   -3.9083    0.2125    0.0000 C   0  0  0  0  0  0  0  0  0  0  0  0
  2  1  1  0
  3  2  1  0
  4  1  1  0
  5  4  2  0
  6  1  2  0
  7  2  1  0
  8  3  1  0
  9  5  1  0
 10  7  1  0
 11  7  2  0
 12 10  2  0
 13 11  1  0
 14 13  2  0
  3  5  1  0
 12 14  1  0
M  END
> <chembl_id>
CHEMBL277474

> <chembl_pref_name>
ANTIPYRINE

$$$$

     RDKit          2D

 16 14  0  0  0  0  0  0  0  0999 V2000
   -2.8286  -11.4321    0.0000 C   0  0  0  0  0  0  0  0  0  0  0  0
   -2.1141  -11.0196    0.0000 C   0  0  0  0  0  0  0  0  0  0  0  0
   -1.3996  -11.4321    0.0000 C   0  0  0  0  0  0  0  0  0  0  0  0
   -0.6852  -11.0196    0.0000 C   0  0  0  0  0  0  0  0  0  0  0  0
    0.0293  -11.4321    0.0000 O   0  0  0  0  0  0  0  0  0  0  0  0
    0.7438  -11.0196    0.0000 N   0  0  0  0  0  0  0  0  0  0  0  0
    1.4583  -11.4321    0.0000 O   0  0  0  0  0  0  0  0  0  0  0  0
   -1.3996  -12.2571    0.0000 C   0  0  0  0  0  0  0  0  0  0  0  0
   -3.0054   -8.5446    0.0000 C   0  0  0  0  0  0  0  0  0  0  0  0
   -2.2909   -8.9571    0.0000 C   0  0  0  0  0  0  0  0  0  0  0  0
   -2.2909   -9.7821    0.0000 C   0  0  0  0  0  0  0  0  0  0  0  0
   -1.5764   -8.5446    0.0000 C   0  0  0  0  0  0  0  0  0  0  0  0
   -0.8619   -8.9571    0.0000 C   0  0  0  0  0  0  0  0  0  0  0  0
   -0.1475   -8.5446    0.0000 O   0  0  0  0  0  0  0  0  0  0  0  0
    0.5670   -8.9571    0.0000 N   0  0  0  0  0  0  0  0  0  0  0  0
    1.2815   -8.5446    0.0000 O   0  0  0  0  0  0  0  0  0  0  0  0
  1  2  1  0
  2  3  1  0
  3  4  1  0
  4  5  1  0
  5  6  1  0
  6  7  2  0
  3  8  1  0
  9 10  1  0
 10 11  1  0
 10 12  1  0
 12 13  1  0
 13 14  1  0
 14 15  1  0
 15 16  2  0
M  END
> <chembl_id>
CHEMBL3833339

> <chembl_pref_name>
AMYL NITRITE

$$$$

     RDKit          2D

 20 21  0  0  0  0  0  0  0  0999 V2000
    2.6792    0.3958    0.0000 N   0  0  0  0  0  0  0  0  0  0  0  0
    1.8292   -0.1042    0.0000 C   0  0  0  0  0  0  0  0  0  0  0  0
   -2.4583    0.2958    0.0000 C   0  0  0  0  0  0  0  0  0  0  0  0
   -3.3083   -0.1875    0.0000 N   0  0  0  0  0  0  0  0  0  0  0  0
   -1.5958   -0.1875    0.0000 C   0  0  0  0  0  0  0  0  0  0  0  0
    1.8292   -1.1167    0.0000 C   0  0  0  0  0  0  0  0  0  0  0  0
    0.9167    0.2958    0.0000 O   0  0  0  0  0  0  0  0  0  0  0  0
   -0.7333    0.3208    0.0000 C   0  0  0  0  0  0  0  0  0  0  0  0
   -1.6083   -1.1667    0.0000 C   0  0  0  0  0  0  0  0  0  0  0  0
    0.9792   -1.6417    0.0000 O   0  0  0  0  0  0  0  0  0  0  0  0
    0.1042   -1.1417    0.0000 C   0  0  0  0  0  0  0  0  0  0  0  0
   -4.1583    0.2833    0.0000 O   0  0  0  0  0  0  0  0  0  0  0  0
    0.1042   -0.1417    0.0000 C   0  0  0  0  0  0  0  0  0  0  0  0
   -0.7333   -1.6667    0.0000 C   0  0  0  0  0  0  0  0  0  0  0  0
    3.5167   -0.1042    0.0000 C   0  0  0  0  0  0  0  0  0  0  0  0
    2.6792    1.3458    0.0000 C   0  0  0  0  0  0  0  0  0  0  0  0
   -2.4583    1.2833    0.0000 C   0  0  0  0  0  0  0  0  0  0  0  0
    4.3417    0.4458    0.0000 C   0  0  0  0  0  0  0  0  0  0  0  0
    3.4375    1.8958    0.0000 C   0  0  0  0  0  0  0  0  0  0  0  0
    4.3417    1.4000    0.0000 C   0  0  0  0  0  0  0  0  0  0  0  0
  2  1  1  0
  3  5  1  0
  4  3  2  0
  5  9  1  0
  6  2  1  0
  7  2  2  0
  8 13  1  0
  9 14  2  0
 10  6  1  0
 11 10  1  0
 12  4  1  0
 13 11  2  0
 14 11  1  0
 15  1  1  0
 16  1  1  0
 17  3  1  0
 18 15  1  0
 19 16  1  0
 20 19  1  0
 18 20  1  0
  5  8  2  0
M  END
> <chembl_id>
CHEMBL1998966

> <chembl_pref_name>
PIFOXIME

$$$$

     RDKit          2D

  6  4  0  0  0  0  0  0  0  0999 V2000
   -1.8083   -1.8792    0.0000 Ba  0  0  0  0  0 15  0  0  0  0  0  0
    0.4375    0.5458    0.0000 S   0  0  0  0  0  0  0  0  0  0  0  0
    0.4375   -0.8667    0.0000 O   0  0  0  0  0  0  0  0  0  0  0  0
   -1.0000    0.5458    0.0000 O   0  0  0  0  0  0  0  0  0  0  0  0
    1.8792    0.5458    0.0000 O   0  0  0  0  0  0  0  0  0  0  0  0
    0.4375    1.9833    0.0000 O   0  0  0  0  0  0  0  0  0  0  0  0
  3  2  1  0
  4  2  1  0
  5  2  2  0
  6  2  2  0
M  CHG  3   1   2   3  -1   4  -1
M  END
> <chembl_id>
CHEMBL2105897

> <chembl_pref_name>
BARIUM SULFATE

$$$$

     RDKit          2D

 14 14  0  0  0  0  0  0  0  0999 V2000
    1.5500   -1.9292    0.0000 C   0  0  0  0  0  0  0  0  0  0  0  0
    0.9375   -1.5750    0.0000 C   0  0  0  0  0  0  0  0  0  0  0  0
    0.9292   -0.8625    0.0000 N   0  0  0  0  0  0  0  0  0  0  0  0
    1.5417   -2.6417    0.0000 C   0  0  0  0  0  0  0  0  0  0  0  0
    2.1625   -1.5667    0.0000 O   0  0  0  0  0  0  0  0  0  0  0  0
    0.3167   -1.9292    0.0000 C   0  0  0  0  0  0  0  0  0  0  0  0
    0.3125   -0.5042    0.0000 C   0  0  0  0  0  0  0  0  0  0  0  0
    1.5417   -0.5042    0.0000 C   0  0  0  0  0  0  0  0  0  0  0  0
    0.9250   -2.9917    0.0000 C   0  0  0  0  0  0  0  0  0  0  0  0
    2.1542   -2.9917    0.0000 C   0  0  0  0  0  0  0  0  0  0  0  0
   -0.3083   -0.8542    0.0000 C   0  0  0  0  0  0  0  0  0  0  0  0
    2.1542   -3.7042    0.0000 C   0  0  0  0  0  0  0  0  0  0  0  0
    0.9167   -3.7042    0.0000 C   0  0  0  0  0  0  0  0  0  0  0  0
    1.5375   -4.0625    0.0000 C   0  0  0  0  0  0  0  0  0  0  0  0
  2  1  1  0
  3  2  1  0
  4  1  1  0
  5  1  1  0
  6  2  1  0
  7  3  1  0
  8  3  1  0
  9  4  2  0
 10  4  1  0
 11  7  1  0
 12 10  2  0
 13  9  1  0
 14 13  2  0
 12 14  1  0
M  END
> <chembl_id>
CHEMBL2110926

> <chembl_pref_name>
ETAFEDRINE

$$$$

     RDKit          2D

 14 15  0  0  0  0  0  0  0  0999 V2000
    2.7253    0.7144    0.0000 N   0  0  0  0  0  0  0  0  0  0  0  0
    3.1378    0.0000    0.0000 C   0  0  0  0  0  0  0  0  0  0  0  0
    2.7253   -0.7145    0.0000 C   0  0  0  0  0  0  0  0  0  0  0  0
    1.9003   -0.7145    0.0000 C   0  0  0  0  0  0  0  0  0  0  0  0
    1.4878    0.0000    0.0000 C   0  0  0  0  0  0  0  0  0  0  0  0
    1.9003    0.7144    0.0000 C   0  0  0  0  0  0  0  0  0  0  0  0
    4.3753   -0.7145    0.0000 N   0  0  0  0  0  0  0  0  0  0  0  0
    3.9628    0.0000    0.0000 C   0  0  0  0  0  0  0  0  0  0  0  0
    4.3753    0.7144    0.0000 C   0  0  0  0  0  0  0  0  0  0  0  0
    5.2003    0.7144    0.0000 C   0  0  0  0  0  0  0  0  0  0  0  0
    5.6128    0.0000    0.0000 C   0  0  0  0  0  0  0  0  0  0  0  0
    5.2003   -0.7145    0.0000 C   0  0  0  0  0  0  0  0  0  0  0  0
    0.6628    0.0000    0.0000 C   0  0  0  0  0  0  0  0  0  0  0  0
    6.4378    0.0000    0.0000 C   0  0  0  0  0  0  0  0  0  0  0  0
  1  2  2  0
  2  3  1  0
  3  4  2  0
  4  5  1  0
  5  6  2  0
  1  6  1  0
  7  8  2  0
  8  9  1  0
  9 10  2  0
 10 11  1  0
 11 12  2  0
  7 12  1  0
  2  8  1  0
  5 13  1  0
 11 14  1  0
M  END
> <chembl_id>
CHEMBL2205807

> <chembl_pref_name>
ABAMETAPIR

$$$$

     RDKit          2D

 15 15  0  0  1  0  0  0  0  0999 V2000
   -0.3216    0.3806    0.0000 C   0  0  0  0  0  0  0  0  0  0  0  0
   -1.0288    0.7931    0.0000 C   0  0  0  0  0  0  0  0  0  0  0  0
   -1.7433    0.3806    0.0000 C   0  0  0  0  0  0  0  0  0  0  0  0
    1.1074   -0.4459    0.0000 C   0  0  0  0  0  0  0  0  0  0  0  0
   -1.7433   -0.4444    0.0000 C   0  0  0  0  0  0  0  0  0  0  0  0
   -0.3216   -0.4444    0.0000 C   0  0  0  0  0  0  0  0  0  0  0  0
   -1.0288   -0.8569    0.0000 C   0  0  0  0  0  0  0  0  0  0  0  0
    0.3978    0.7931    0.0000 C   0  0  0  0  0  0  0  0  0  0  0  0
    1.1099    0.3791    0.0000 C   0  0  0  0  0  0  0  0  0  0  0  0
   -1.0288    1.6181    0.0000 F   0  0  0  0  0  0  0  0  0  0  0  0
    1.7836   -0.9186    0.0000 O   0  0  0  0  0  0  0  0  0  0  0  0
    1.8256    0.7895    0.0000 N   0  0  0  0  0  0  0  0  0  0  0  0
    0.3918   -0.8563    0.0000 O   0  0  0  0  0  0  0  0  0  0  0  0
   -2.4529   -0.8569    0.0000 O   0  0  0  0  0  0  0  0  0  0  0  0
   -1.0288   -1.6819    0.0000 O   0  0  0  0  0  0  0  0  0  0  0  0
  2  1  2  0
  3  2  1  0
  4  9  1  0
  5  7  1  0
  6  1  1  0
  7  6  2  0
  8  1  1  0
  9  8  1  0
 10  2  1  0
 11  4  2  0
  9 12  1  6
 13  4  1  0
 14  5  1  0
 15  7  1  0
  3  5  2  0
M  END
> <chembl_id>
CHEMBL3547132

> <chembl_pref_name>
FLUORODOPA

$$$$

     RDKit          2D

 14 14  0  0  0  0  0  0  0  0999 V2000
    5.3292   -4.8542    0.0000 O   0  0  0  0  0  0  0  0  0  0  0  0
    5.9500   -4.5083    0.0000 C   0  0  0  0  0  0  0  0  0  0  0  0
    6.5667   -4.8542    0.0000 C   0  0  0  0  0  0  0  0  0  0  0  0
    4.7250   -4.5083    0.0000 C   0  0  0  0  0  0  0  0  0  0  0  0
    4.1042   -4.8750    0.0000 C   0  0  0  0  0  0  0  0  0  0  0  0
    6.5667   -5.5667    0.0000 O   0  0  0  0  0  0  0  0  0  0  0  0
    4.1042   -5.5667    0.0000 O   0  0  0  0  0  0  0  0  0  0  0  0
    2.8750   -4.8667    0.0000 O   0  0  0  0  0  0  0  0  0  0  0  0
    3.4875   -4.5083    0.0000 C   0  0  0  0  0  0  0  0  0  0  0  0
    5.9542   -3.8000    0.0000 C   0  0  0  0  0  0  0  0  0  0  0  0
    7.1792   -4.5083    0.0000 C   0  0  0  0  0  0  0  0  0  0  0  0
    7.1792   -5.9250    0.0000 C   0  0  0  0  0  0  0  0  0  0  0  0
    7.1792   -3.8042    0.0000 C   0  0  0  0  0  0  0  0  0  0  0  0
    6.5667   -3.4417    0.0000 C   0  0  0  0  0  0  0  0  0  0  0  0
  2  1  1  0
  3  2  2  0
  4  1  1  0
  5  4  1  0
  6  3  1  0
  7  5  1  0
  8  9  1  0
  9  5  1  0
 10  2  1  0
 11  3  1  0
 12  6  1  0
 13 14  1  0
 14 10  2  0
 13 11  2  0
M  END
> <chembl_id>
CHEMBL980

> <chembl_pref_name>
GUAIFENESIN

$$$$

     RDKit          2D

 16 17  0  0  0  0  0  0  0  0999 V2000
    4.3917   -4.7750    0.0000 C   0  0  0  0  0  0  0  0  0  0  0  0
    4.3917   -4.0667    0.0000 C   0  0  0  0  0  0  0  0  0  0  0  0
    3.7875   -5.1250    0.0000 N   0  0  0  0  0  0  0  0  0  0  0  0
    5.0750   -4.9875    0.0000 N   0  0  0  0  0  0  0  0  0  0  0  0
    3.1625   -4.0625    0.0000 N   0  0  0  0  0  0  0  0  0  0  0  0
    5.0667   -3.8292    0.0000 N   0  0  0  0  0  0  0  0  0  0  0  0
    3.7667   -3.7167    0.0000 C   0  0  0  0  0  0  0  0  0  0  0  0
    3.1667   -4.7750    0.0000 C   0  0  0  0  0  0  0  0  0  0  0  0
    5.4875   -4.4042    0.0000 C   0  0  0  0  0  0  0  0  0  0  0  0
    3.7667   -3.0000    0.0000 O   0  0  0  0  0  0  0  0  0  0  0  0
    5.0792   -5.6833    0.0000 C   0  0  0  0  0  0  0  0  0  0  0  0
    2.5542   -5.1292    0.0000 N   0  0  0  0  0  0  0  0  0  0  0  0
    5.6958   -6.0333    0.0000 O   0  0  0  0  0  0  0  0  0  0  0  0
    7.5458   -5.6875    0.0000 O   0  0  0  0  0  0  0  0  0  0  0  0
    6.9250   -6.0292    0.0000 C   0  0  0  0  0  0  0  0  0  0  0  0
    6.3125   -5.6833    0.0000 C   0  0  0  0  0  0  0  0  0  0  0  0
  2  1  2  0
  3  1  1  0
  4  1  1  0
  5  8  1  0
  6  2  1  0
  7  2  1  0
  8  3  2  0
  9  4  1  0
 10  7  2  0
 11  4  1  0
 12  8  1  0
 13 11  1  0
 14 15  1  0
 15 16  1  0
 16 13  1  0
  6  9  2  0
  7  5  1  0
M  END
> <chembl_id>
CHEMBL184

> <chembl_pref_name>
ACYCLOVIR

$$$$

     RDKit          2D

 11 11  0  0  1  0  0  0  0  0999 V2000
    3.8292   -5.1792    0.0000 N   0  0  0  0  0  0  0  0  0  0  0  0
    3.2167   -4.1292    0.0000 C   0  0  0  0  0  0  0  0  0  0  0  0
    2.6000   -4.4917    0.0000 C   0  0  0  0  0  0  0  0  0  0  0  0
    3.8292   -4.4792    0.0000 C   0  0  0  0  0  0  0  0  0  0  0  0
    4.4292   -5.5292    0.0000 C   0  0  0  0  0  0  0  0  0  0  0  0
    1.9792   -4.1292    0.0000 C   0  0  0  0  0  0  0  0  0  0  0  0
    2.6000   -5.2042    0.0000 C   0  0  0  0  0  0  0  0  0  0  0  0
    4.4375   -4.1167    0.0000 C   0  0  0  0  0  0  0  0  0  0  0  0
    1.3667   -4.4917    0.0000 C   0  0  0  0  0  0  0  0  0  0  0  0
    1.9792   -5.5667    0.0000 C   0  0  0  0  0  0  0  0  0  0  0  0
    1.3667   -5.2042    0.0000 C   0  0  0  0  0  0  0  0  0  0  0  0
  2  4  1  0
  3  2  1  0
  4  1  1  6
  5  1  1  0
  6  3  1  0
  7  3  2  0
  8  4  1  0
  9  6  2  0
 10  7  1  0
 11  9  1  0
 11 10  2  0
M  END
> <chembl_id>
CHEMBL1201201

> <chembl_pref_name>
METHAMPHETAMINE

$$$$

     RDKit          2D

 10 10  0  0  0  0  0  0  0  0999 V2000
    5.3292   -4.4292    0.0000 C   0  0  0  0  0  0  0  0  0  0  0  0
    4.6542   -4.7792    0.0000 C   0  0  0  0  0  0  0  0  0  0  0  0
    5.3292   -3.7667    0.0000 O   0  0  0  0  0  0  0  0  0  0  0  0
    4.0542   -5.8292    0.0000 N   0  0  0  0  0  0  0  0  0  0  0  0
    5.9917   -4.7792    0.0000 O   0  0  0  0  0  0  0  0  0  0  0  0
    4.6542   -5.4792    0.0000 C   0  0  0  0  0  0  0  0  0  0  0  0
    4.0542   -4.4292    0.0000 C   0  0  0  0  0  0  0  0  0  0  0  0
    3.4750   -5.4792    0.0000 C   0  0  0  0  0  0  0  0  0  0  0  0
    6.6750   -4.3792    0.0000 C   0  0  0  0  0  0  0  0  0  0  0  0
    3.4750   -4.7792    0.0000 C   0  0  0  0  0  0  0  0  0  0  0  0
  2  1  1  0
  3  1  2  0
  4  6  1  0
  5  1  1  0
  6  2  2  0
  7  2  1  0
  8 10  1  0
  9  5  1  0
 10  7  2  0
  8  4  2  0
M  END
> <chembl_id>
CHEMBL379845

> <chembl_pref_name>
METHYL NICOTINATE

$$$$

     RDKit          2D

 17 18  0  0  0  0  0  0  0  0999 V2000
    0.9708   -2.4625    0.0000 N   0  0  0  0  0  0  0  0  0  0  0  0
    0.9708   -3.1708    0.0000 C   0  0  0  0  0  0  0  0  0  0  0  0
    1.5829   -3.5250    0.0000 N   0  0  0  0  0  0  0  0  0  0  0  0
    2.1949   -3.1708    0.0000 C   0  0  0  0  0  0  0  0  0  0  0  0
    2.1949   -2.4625    0.0000 N   0  0  0  0  0  0  0  0  0  0  0  0
    1.5829   -2.1083    0.0000 C   0  0  0  0  0  0  0  0  0  0  0  0
    0.6583   -5.0250    0.0000 C   0  0  0  0  0  0  0  0  0  0  0  0
    1.3666   -5.0250    0.0000 C   0  0  0  0  0  0  0  0  0  0  0  0
    1.5859   -4.3534    0.0000 C   0  0  0  0  0  0  0  0  0  0  0  0
    1.0125   -3.9333    0.0000 O   0  0  0  0  0  0  0  0  0  0  0  0
    0.4391   -4.3534    0.0000 C   0  0  0  0  0  0  0  0  0  0  0  0
   -0.1792   -3.9958    0.0000 C   0  0  0  0  0  0  0  0  0  0  0  0
   -0.7929   -4.3495    0.0000 O   0  0  0  0  0  0  0  0  0  0  0  0
    2.1958   -4.7042    0.0000 H   0  0  0  0  0  0  0  0  0  0  0  0
    0.2423   -5.5984    0.0000 O   0  0  0  0  0  0  0  0  0  0  0  0
    1.5829   -1.4000    0.0000 N   0  0  0  0  0  0  0  0  0  0  0  0
    2.8085   -3.5247    0.0000 O   0  0  0  0  0  0  0  0  0  0  0  0
  2  3  1  0
  3  4  1  0
  8  9  1  0
  9 10  1  0
 10 11  1  0
 11  7  1  0
  4  5  1  0
 11 12  1  1
  5  6  2  0
 12 13  1  0
  9  3  1  0
  7  8  1  0
  9 14  1  6
  7 15  1  6
  1  2  2  0
  6 16  1  0
  1  6  1  0
  4 17  2  0
M  END
> <chembl_id>
CHEMBL1201129

> <chembl_pref_name>
DECITABINE

$$$$

     RDKit          2D

 13 13  0  0  0  0  0  0  0  0999 V2000
   -1.2375    1.5000    0.0000 C   0  0  0  0  0  0  0  0  0  0  0  0
    0.0542    0.7500    0.0000 C   0  0  0  0  0  0  0  0  0  0  0  0
   -2.5333    0.7500    0.0000 C   0  0  0  0  0  0  0  0  0  0  0  0
    0.0542   -0.7417    0.0000 C   0  0  0  0  0  0  0  0  0  0  0  0
   -2.5333   -0.7417    0.0000 C   0  0  0  0  0  0  0  0  0  0  0  0
   -1.2708    2.6208    0.0000 O   0  0  0  0  0  0  0  0  0  0  0  0
   -1.2375   -1.4917    0.0000 C   0  0  0  0  0  0  0  0  0  0  0  0
    1.2792    1.4500    0.0000 C   0  0  0  0  0  0  0  0  0  0  0  0
   -3.7750   -1.3042    0.0000 C   0  0  0  0  0  0  0  0  0  0  0  0
    2.5250    0.7500    0.0000 C   0  0  0  0  0  0  0  0  0  0  0  0
    3.7667   -1.4000    0.0000 C   0  0  0  0  0  0  0  0  0  0  0  0
    2.5042   -0.6792    0.0000 C   0  0  0  0  0  0  0  0  0  0  0  0
    3.7667   -2.8375    0.0000 C   0  0  0  0  0  0  0  0  0  0  0  0
  2  1  1  0
  3  1  2  0
  4  2  2  0
  5  3  1  0
  6  1  1  0
  7  5  2  0
  8  2  1  0
  9  5  1  0
 10  8  1  0
 11 12  1  0
 12 10  1  0
 13 11  1  0
  4  7  1  0
M  END
> <chembl_id>
CHEMBL1512677

> <chembl_pref_name>
AMYLMETACRESOL

$$$$

     RDKit          2D

 12 12  0  0  0  0  0  0  0  0999 V2000
   -0.5333    2.6833    0.0000 C   0  0  0  0  0  0  0  0  0  0  0  0
   -0.5333    1.2958    0.0000 C   0  0  0  0  0  0  0  0  0  0  0  0
    0.6917    3.3833    0.0000 S   0  0  0  0  0  0  0  0  0  0  0  0
   -0.5333   -1.5042    0.0000 N   0  0  0  0  0  0  0  0  0  0  0  0
    0.6917    0.5708    0.0000 C   0  0  0  0  0  0  0  0  0  0  0  0
    0.6917   -0.7792    0.0000 C   0  0  0  0  0  0  0  0  0  0  0  0
   -1.7250    3.3833    0.0000 N   0  0  0  0  0  0  0  0  0  0  0  0
   -1.7250   -0.8167    0.0000 C   0  0  0  0  0  0  0  0  0  0  0  0
   -1.7250    0.5708    0.0000 C   0  0  0  0  0  0  0  0  0  0  0  0
    1.9167   -1.4000    0.0000 C   0  0  0  0  0  0  0  0  0  0  0  0
    1.9875   -2.7667    0.0000 C   0  0  0  0  0  0  0  0  0  0  0  0
    0.8667   -3.5875    0.0000 C   0  0  0  0  0  0  0  0  0  0  0  0
  2  1  1  0
  3  1  2  0
  4  8  2  0
  5  2  1  0
  6  5  2  0
  7  1  1  0
  8  9  1  0
  9  2  2  0
 10  6  1  0
 11 10  1  0
 12 11  1  0
  6  4  1  0
M  END
> <chembl_id>
CHEMBL1378024

> <chembl_pref_name>
PROTIONAMIDE

$$$$

     RDKit          2D

 14 15  0  0  0  0  0  0  0  0999 V2000
    4.7465    0.6296    0.0000 Cl  0  0  0  0  0  0  0  0  0  0  0  0
    2.0529    0.8485    0.0000 C   0  0  0  0  0  0  0  0  0  0  0  0
    2.0529    0.0000    0.0000 C   0  0  0  0  0  0  0  0  0  0  0  0
    2.6551    1.5739    0.0000 C   0  0  0  0  0  0  0  0  0  0  0  0
    1.4234   -0.3148    0.0000 C   0  0  0  0  0  0  0  0  0  0  0  0
    1.9571    1.2454    0.0000 C   0  0  0  0  0  0  0  0  0  0  0  0
    1.9571    0.3148    0.0000 C   0  0  0  0  0  0  0  0  0  0  0  0
    3.3667    1.2454    0.0000 C   0  0  0  0  0  0  0  0  0  0  0  0
    3.3667    0.3148    0.0000 C   0  0  0  0  0  0  0  0  0  0  0  0
    2.8603   -0.3148    0.0000 C   0  0  0  0  0  0  0  0  0  0  0  0
    2.7645    0.0137    0.0000 C   0  0  0  0  0  0  0  0  0  0  0  0
    1.1977    0.6373    0.0000 C   0  0  0  0  0  0  0  0  0  0  0  0
    1.1169    1.2946    0.0000 C   0  0  0  0  0  0  0  0  0  0  0  0
    0.6688    0.2388    0.0000 N   0  0  0  0  0  0  0  0  0  0  0  0
  2  3  1  0
  2  4  1  0
  3  5  1  0
  4  6  1  0
  5  7  1  0
  6  7  1  0
  4  8  1  0
  8  9  1  0
  3 10  1  0
  9 10  1  0
  7 11  1  0
  9 11  1  0
  7 12  1  0
 12 13  1  0
 12 14  1  0
M  END
> <chembl_id>
CHEMBL535396

> <chembl_pref_name>
RIMANTADINE HYDROCHLORIDE

$$$$

     RDKit          2D

 14 14  0  0  0  0  0  0  0  0999 V2000
    1.3792    0.6500    0.0000 C   0  0  0  0  0  0  0  0  0  0  0  0
    0.8417   -0.3417    0.0000 C   0  0  0  0  0  0  0  0  0  0  0  0
    2.5667    0.6708    0.0000 O   0  0  0  0  0  0  0  0  0  0  0  0
   -0.2958   -0.3417    0.0000 C   0  0  0  0  0  0  0  0  0  0  0  0
    1.4250   -1.3292    0.0000 C   0  0  0  0  0  0  0  0  0  0  0  0
   -0.2583   -2.3292    0.0000 C   0  0  0  0  0  0  0  0  0  0  0  0
    0.7792    1.6333    0.0000 O   0  0  0  0  0  0  0  0  0  0  0  0
   -0.8125   -3.3042    0.0000 N   0  0  0  0  0  0  0  0  0  0  0  0
    0.8667   -2.3292    0.0000 C   0  0  0  0  0  0  0  0  0  0  0  0
   -0.8583   -1.3292    0.0000 C   0  0  0  0  0  0  0  0  0  0  0  0
   -0.3333    1.6333    0.0000 C   0  0  0  0  0  0  0  0  0  0  0  0
   -0.9333    2.6125    0.0000 C   0  0  0  0  0  0  0  0  0  0  0  0
   -2.0958    2.6125    0.0000 C   0  0  0  0  0  0  0  0  0  0  0  0
   -2.6958    3.5958    0.0000 C   0  0  0  0  0  0  0  0  0  0  0  0
  2  1  1  0
  3  1  2  0
  4  2  1  0
  5  2  2  0
  6  9  2  0
  7  1  1  0
  8  6  1  0
  9  5  1  0
 10  4  2  0
 11  7  1  0
 12 11  1  0
 13 12  1  0
 14 13  1  0
 10  6  1  0
M  END
> <chembl_id>
CHEMBL127516

> <chembl_pref_name>
BUTAMBEN

$$$$

     RDKit          2D

 17 17  0  0  0  0  0  0  0  0999 V2000
    5.0949   -2.6253    0.0000 Cl  0  0  0  0  0  0  0  0  0  0  0  0
    0.2404   -3.7843    0.0000 C   0  0  0  0  0  0  0  0  0  0  0  0
    0.2431   -2.9412    0.0000 C   0  0  0  0  0  0  0  0  0  0  0  0
    0.9296   -2.5103    0.0000 C   0  0  0  0  0  0  0  0  0  0  0  0
    1.6593   -2.9795    0.0000 C   0  0  0  0  0  0  0  0  0  0  0  0
    2.4135   -2.5657    0.0000 C   0  0  0  0  0  0  0  0  0  0  0  0
    1.5375   -1.3324    0.0000 Cl  0  0  0  0  0  0  0  0  0  0  0  0
    2.3894   -1.7062    0.0000 C   0  0  0  0  0  0  0  0  0  0  0  0
    3.0961   -1.3137    0.0000 C   0  0  0  0  0  0  0  0  0  0  0  0
    3.8161   -1.7189    0.0000 C   0  0  0  0  0  0  0  0  0  0  0  0
    3.8109   -2.5576    0.0000 C   0  0  0  0  0  0  0  0  0  0  0  0
    3.0988   -2.9574    0.0000 C   0  0  0  0  0  0  0  0  0  0  0  0
    1.6620   -3.7616    0.0000 C   0  0  0  0  0  0  0  0  0  0  0  0
    0.9653   -4.1782    0.0000 C   0  0  0  0  0  0  0  0  0  0  0  0
    0.9282   -1.6936    0.0000 O   0  0  0  0  0  0  0  0  0  0  0  0
    2.2369   -3.5570    0.0000 N   0  0  0  0  0  0  0  0  0  0  0  0
    2.2369   -4.3737    0.0000 C   0  0  0  0  0  0  0  0  0  0  0  0
  2  3  1  0
  4  5  1  0
  4  3  1  0
  5  6  1  1
  6 12  1  0
  7  8  1  0
  8  6  2  0
  9  8  1  0
  9 10  2  0
 11 10  1  0
 12 11  2  0
 13 14  1  0
 13  5  1  0
 14  2  1  0
  4 15  2  0
  5 16  1  6
 16 17  1  0
M  END
> <chembl_id>
CHEMBL2364609

> <chembl_pref_name>
ESKETAMINE HYDROCHLORIDE

$$$$

     RDKit          2D

 17 18  0  0  0  0  0  0  0  0999 V2000
    1.8542   -4.6917    0.0000 C   0  0  0  0  0  0  0  0  0  0  0  0
    1.2250   -5.0250    0.0000 N   0  0  0  0  0  0  0  0  0  0  0  0
    1.8792   -3.9875    0.0000 C   0  0  0  0  0  0  0  0  0  0  0  0
    0.6250   -4.6417    0.0000 C   0  0  0  0  0  0  0  0  0  0  0  0
    1.2792   -3.6042    0.0000 C   0  0  0  0  0  0  0  0  0  0  0  0
    2.4875   -3.6375    0.0000 C   0  0  0  0  0  0  0  0  0  0  0  0
    2.4417   -5.0667    0.0000 O   0  0  0  0  0  0  0  0  0  0  0  0
   -0.0083   -4.9792    0.0000 O   0  0  0  0  0  0  0  0  0  0  0  0
    0.6500   -3.9417    0.0000 C   0  0  0  0  0  0  0  0  0  0  0  0
    3.1000   -3.9917    0.0000 C   0  0  0  0  0  0  0  0  0  0  0  0
    2.5000   -2.9292    0.0000 C   0  0  0  0  0  0  0  0  0  0  0  0
    3.7292   -2.9375    0.0000 C   0  0  0  0  0  0  0  0  0  0  0  0
    4.3375   -2.5875    0.0000 N   0  0  0  0  0  0  0  0  0  0  0  0
    3.1167   -2.5792    0.0000 C   0  0  0  0  0  0  0  0  0  0  0  0
    3.7167   -3.6500    0.0000 C   0  0  0  0  0  0  0  0  0  0  0  0
    1.8792   -3.2750    0.0000 C   0  0  0  0  0  0  0  0  0  0  0  0
    1.2667   -2.9167    0.0000 C   0  0  0  0  0  0  0  0  0  0  0  0
  2  1  1  0
  3  1  1  0
  4  2  1  0
  5  3  1  0
  6  3  1  0
  7  1  2  0
  8  4  2  0
  9  5  1  0
 10  6  2  0
 11  6  1  0
 12 14  1  0
 13 12  1  0
 14 11  2  0
 15 10  1  0
 16  3  1  0
 17 16  1  0
  4  9  1  0
 15 12  2  0
M  END
> <chembl_id>
CHEMBL488

> <chembl_pref_name>
AMINOGLUTETHIMIDE

$$$$

     RDKit          2D

 19 19  0  0  0  0  0  0  0  0999 V2000
  -15.8813    5.0384    0.0000 Cl  0  0  0  0  0  0  0  0  0  0  0  0
  -14.2607    7.9897    0.0000 C   0  0  0  0  0  0  0  0  0  0  0  0
  -14.6732    7.2752    0.0000 C   0  0  0  0  0  0  0  0  0  0  0  0
  -13.8482    7.2752    0.0000 C   0  0  0  0  0  0  0  0  0  0  0  0
  -15.3877    7.6877    0.0000 C   0  0  0  0  0  0  0  0  0  0  0  0
  -13.8482    6.4502    0.0000 C   0  0  0  0  0  0  0  0  0  0  0  0
  -13.1338    7.6877    0.0000 C   0  0  0  0  0  0  0  0  0  0  0  0
  -12.4193    7.2752    0.0000 N   0  0  0  0  0  0  0  0  0  0  0  0
  -13.1338    8.5127    0.0000 O   0  0  0  0  0  0  0  0  0  0  0  0
  -11.7048    7.6877    0.0000 C   0  0  0  0  0  0  0  0  0  0  0  0
  -12.4193    6.4502    0.0000 C   0  0  0  0  0  0  0  0  0  0  0  0
  -11.7048    6.0377    0.0000 C   0  0  0  0  0  0  0  0  0  0  0  0
  -10.9904    7.2752    0.0000 C   0  0  0  0  0  0  0  0  0  0  0  0
  -16.1021    7.2752    0.0000 N   0  0  0  0  0  0  0  0  0  0  0  0
  -14.5627    6.0377    0.0000 C   0  0  0  0  0  0  0  0  0  0  0  0
  -14.5627    5.2127    0.0000 C   0  0  0  0  0  0  0  0  0  0  0  0
  -13.8482    4.8002    0.0000 C   0  0  0  0  0  0  0  0  0  0  0  0
  -13.1337    5.2127    0.0000 C   0  0  0  0  0  0  0  0  0  0  0  0
  -13.1337    6.0377    0.0000 C   0  0  0  0  0  0  0  0  0  0  0  0
  2  3  1  0
  3  4  1  0
  4  2  1  0
  3  5  1  6
  4  6  1  1
  4  7  1  0
  7  8  1  0
  7  9  2  0
  8 10  1  0
  8 11  1  0
 11 12  1  0
 10 13  1  0
  5 14  1  0
  6 15  1  0
  6 19  2  0
 15 16  2  0
 16 17  1  0
 17 18  2  0
 18 19  1  0
M  END
> <chembl_id>
CHEMBL2105732

> <chembl_pref_name>
LEVOMILNACIPRAN HYDROCHLORIDE

$$$$

     RDKit          2D

 10  9  0  0  0  0  0  0  0  0999 V2000
    4.2750   -6.5417    0.0000 C   0  0  0  0  0  0  0  0  0  0  0  0
    3.0667   -6.5375    0.0000 O   0  0  0  0  0  0  0  0  0  0  0  0
    3.6667   -6.8875    0.0000 C   0  0  0  0  0  0  0  0  0  0  0  0
    2.4458   -6.8750    0.0000 C   0  0  0  0  0  0  0  0  0  0  0  0
    4.8833   -6.9042    0.0000 F   0  0  0  0  0  0  0  0  0  0  0  0
    4.6250   -5.9292    0.0000 F   0  0  0  0  0  0  0  0  0  0  0  0
    3.9167   -5.9292    0.0000 F   0  0  0  0  0  0  0  0  0  0  0  0
    3.6667   -7.6000    0.0000 Cl  0  0  0  0  0  0  0  0  0  0  0  0
    2.4458   -7.5875    0.0000 F   0  0  0  0  0  0  0  0  0  0  0  0
    1.8375   -6.5125    0.0000 F   0  0  0  0  0  0  0  0  0  0  0  0
  2  3  1  0
  3  1  1  0
  4  2  1  0
  5  1  1  0
  6  1  1  0
  7  1  1  0
  8  3  1  0
  9  4  1  0
 10  4  1  0
M  END
> <chembl_id>
CHEMBL1256

> <chembl_pref_name>
ISOFLURANE

$$$$

     RDKit          2D

 20 22  0  0  0  0  0  0  0  0999 V2000
    5.2167   -4.5667    0.0000 C   0  0  0  0  0  0  0  0  0  0  0  0
    5.7750   -3.4125    0.0000 N   0  0  0  0  0  0  0  0  0  0  0  0
    5.2167   -3.8542    0.0000 C   0  0  0  0  0  0  0  0  0  0  0  0
    5.7750   -5.0042    0.0000 C   0  0  0  0  0  0  0  0  0  0  0  0
    6.4542   -4.8417    0.0000 N   0  0  0  0  0  0  0  0  0  0  0  0
    6.4542   -3.5750    0.0000 C   0  0  0  0  0  0  0  0  0  0  0  0
    6.7625   -4.2125    0.0000 C   0  0  0  0  0  0  0  0  0  0  0  0
    4.6042   -3.5000    0.0000 C   0  0  0  0  0  0  0  0  0  0  0  0
    4.6042   -4.9167    0.0000 C   0  0  0  0  0  0  0  0  0  0  0  0
    5.4167   -5.6042    0.0000 C   0  0  0  0  0  0  0  0  0  0  0  0
    6.9042   -3.0125    0.0000 O   0  0  0  0  0  0  0  0  0  0  0  0
    3.9917   -4.5542    0.0000 C   0  0  0  0  0  0  0  0  0  0  0  0
    3.9917   -3.8542    0.0000 C   0  0  0  0  0  0  0  0  0  0  0  0
    5.6292   -2.7000    0.0000 C   0  0  0  0  0  0  0  0  0  0  0  0
    3.3542   -4.9000    0.0000 Cl  0  0  0  0  0  0  0  0  0  0  0  0
    5.7750   -6.2250    0.0000 C   0  0  0  0  0  0  0  0  0  0  0  0
    4.7167   -5.6042    0.0000 C   0  0  0  0  0  0  0  0  0  0  0  0
    5.4167   -6.8375    0.0000 C   0  0  0  0  0  0  0  0  0  0  0  0
    4.3667   -6.2250    0.0000 C   0  0  0  0  0  0  0  0  0  0  0  0
    4.7167   -6.8292    0.0000 C   0  0  0  0  0  0  0  0  0  0  0  0
  2  3  1  0
  3  1  2  0
  4  1  1  0
  5  4  2  0
  6  2  1  0
  7  5  1  0
  8  3  1  0
  9  1  1  0
 10  4  1  0
 11  6  2  0
 12  9  2  0
 13 12  1  0
 14  2  1  0
 15 12  1  0
 16 10  1  0
 17 10  2  0
 18 16  2  0
 19 17  1  0
 20 19  2  0
 13  8  2  0
  6  7  1  0
 20 18  1  0
M  END
> <chembl_id>
CHEMBL12

> <chembl_pref_name>
DIAZEPAM

$$$$

     RDKit          2D

 18 18  0  0  0  0  0  0  0  0999 V2000
    7.8042   -4.9667    0.0000 Cl  0  0  0  0  0  0  0  0  0  0  0  0
    6.4542   -4.0542    0.0000 C   0  0  0  0  0  0  0  0  0  0  0  0
    6.4542   -4.7625    0.0000 C   0  0  0  0  0  0  0  0  0  0  0  0
    7.6875   -4.0500    0.0000 N   0  0  0  0  0  0  0  0  0  0  0  0
    7.0750   -3.7042    0.0000 C   0  0  0  0  0  0  0  0  0  0  0  0
    5.8500   -3.7042    0.0000 C   0  0  0  0  0  0  0  0  0  0  0  0
    7.0750   -5.1167    0.0000 O   0  0  0  0  0  0  0  0  0  0  0  0
    5.8417   -5.1125    0.0000 O   0  0  0  0  0  0  0  0  0  0  0  0
    8.3042   -3.7000    0.0000 C   0  0  0  0  0  0  0  0  0  0  0  0
    5.2292   -4.0542    0.0000 C   0  0  0  0  0  0  0  0  0  0  0  0
    5.8542   -2.9875    0.0000 C   0  0  0  0  0  0  0  0  0  0  0  0
    7.0750   -2.9875    0.0000 C   0  0  0  0  0  0  0  0  0  0  0  0
    5.2250   -4.7542    0.0000 C   0  0  0  0  0  0  0  0  0  0  0  0
    8.3042   -2.9917    0.0000 C   0  0  0  0  0  0  0  0  0  0  0  0
    5.2292   -2.6292    0.0000 C   0  0  0  0  0  0  0  0  0  0  0  0
    4.6167   -3.7042    0.0000 C   0  0  0  0  0  0  0  0  0  0  0  0
    7.6917   -2.6292    0.0000 C   0  0  0  0  0  0  0  0  0  0  0  0
    4.6167   -2.9875    0.0000 C   0  0  0  0  0  0  0  0  0  0  0  0
  3  2  1  0
  4  5  1  0
  5  2  1  0
  6  2  1  0
  7  3  2  0
  8  3  1  0
  9  4  1  0
 10  6  1  0
 11  6  2  0
 12  5  1  0
 13  8  1  0
 14 17  1  0
 15 11  1  0
 16 10  2  0
 17 12  1  0
 18 16  1  0
 18 15  2  0
 14  9  1  0
M  END
> <chembl_id>
CHEMBL1722

> <chembl_pref_name>
METHYLPHENIDATE HYDROCHLORIDE

$$$$

     RDKit          2D

 12 13  0  0  1  0  0  0  0  0999 V2000
    3.3250   -3.3500    0.0000 N   0  0  0  0  0  0  0  0  0  0  0  0
    2.7500   -3.7500    0.0000 C   0  0  0  0  0  0  0  0  0  0  0  0
    2.1417   -3.3917    0.0000 C   0  0  0  0  0  0  0  0  0  0  0  0
    0.9042   -3.3792    0.0000 N   0  0  0  0  0  0  0  0  0  0  0  0
    1.5167   -3.7417    0.0000 C   0  0  0  0  0  0  0  0  0  0  0  0
    3.9042   -3.7750    0.0000 C   0  0  0  0  0  0  0  0  0  0  0  0
    3.3375   -2.6375    0.0000 C   0  0  0  0  0  0  0  0  0  0  0  0
    2.9542   -4.4292    0.0000 C   0  0  0  0  0  0  0  0  0  0  0  0
    3.6667   -4.4417    0.0000 C   0  0  0  0  0  0  0  0  0  0  0  0
    2.1417   -2.6875    0.0000 C   0  0  0  0  0  0  0  0  0  0  0  0
    0.9125   -2.6625    0.0000 C   0  0  0  0  0  0  0  0  0  0  0  0
    1.5292   -2.3250    0.0000 C   0  0  0  0  0  0  0  0  0  0  0  0
  2  1  1  0
  2  3  1  1
  4  5  2  0
  5  3  1  0
  6  1  1  0
  7  1  1  0
  8  2  1  0
  9  6  1  0
 10  3  2  0
 11 12  2  0
 12 10  1  0
  9  8  1  0
 11  4  1  0
M  END
> <chembl_id>
CHEMBL3

> <chembl_pref_name>
NICOTINE

$$$$

     RDKit          2D

  2  1  0  0  0  0  0  0  0  0999 V2000
    4.8167   -4.8250    0.0000 Mg  0  0  0  0  0  2  0  0  0  0  0  0
    5.5292   -4.8250    0.0000 O   0  0  0  0  0  0  0  0  0  0  0  0
  2  1  2  0
M  END
> <chembl_id>
CHEMBL1200572

> <chembl_pref_name>
MAGNESIUM OXIDE

$$$$

     RDKit          2D

  2  1  0  0  0  0  0  0  0  0999 V2000
    0.7542    0.0500    0.0000 O   0  0  0  0  0  0  0  0  0  0  0  0
   -0.6833    0.0500    0.0000 O   0  0  0  0  0  0  0  0  0  0  0  0
  2  1  1  0
M  END
> <chembl_id>
CHEMBL71595

> <chembl_pref_name>
HYDROGEN PEROXIDE

$$$$

     RDKit          2D

 11 11  0  0  0  0  0  0  0  0999 V2000
   -0.7958   -1.6167    0.0000 N   0  0  0  0  0  0  0  0  0  0  0  0
    0.5167    0.6625    0.0000 C   0  0  0  0  0  0  0  0  0  0  0  0
    0.5167   -0.8542    0.0000 C   0  0  0  0  0  0  0  0  0  0  0  0
   -0.7958    1.4208    0.0000 N   0  0  0  0  0  0  0  0  0  0  0  0
    1.7542    1.3833    0.0000 C   0  0  0  0  0  0  0  0  0  0  0  0
   -2.1000   -0.8542    0.0000 C   0  0  0  0  0  0  0  0  0  0  0  0
   -0.7958   -2.7167    0.0000 O   0  0  0  0  0  0  0  0  0  0  0  0
   -2.1000    0.6625    0.0000 C   0  0  0  0  0  0  0  0  0  0  0  0
    1.7542    2.8208    0.0000 O   0  0  0  0  0  0  0  0  0  0  0  0
    3.0292    0.6958    0.0000 O   0  0  0  0  0  0  0  0  0  0  0  0
   -3.1458   -1.5167    0.0000 C   0  0  0  0  0  0  0  0  0  0  0  0
  2  3  2  0
  3  1  1  0
  4  8  2  0
  5  2  1  0
  6  1  2  0
  7  1  1  0
  8  6  1  0
  9  5  2  0
 10  5  1  0
 11  6  1  0
  2  4  1  0
M  CHG  2   1   1   7  -1
M  END
> <chembl_id>
CHEMBL345714

> <chembl_pref_name>
ACIPIMOX

$$$$

     RDKit          2D

 26 29  0  0  1  0  0  0  0  0999 V2000
    2.0625   -0.0625    0.0000 C   0  0  0  0  0  0  0  0  0  0  0  0
    2.0625   -0.7750    0.0000 C   0  0  0  0  0  0  0  0  0  0  0  0
    0.2250   -1.8417    0.0000 C   0  0  0  0  0  0  0  0  0  0  0  0
    1.4417   -1.1250    0.0000 C   0  0  0  0  0  0  0  0  0  0  0  0
    0.8375   -0.7750    0.0000 C   0  0  0  0  0  0  0  0  0  0  0  0
    0.2250   -1.1250    0.0000 C   0  0  0  0  0  0  0  0  0  0  0  0
    2.7375    0.1500    0.0000 C   0  0  0  0  0  0  0  0  0  0  0  0
   -0.4000   -2.1917    0.0000 C   0  0  0  0  0  0  0  0  0  0  0  0
    3.3500    0.5083    0.0000 C   0  0  0  0  0  0  0  0  0  0  0  0
    1.4417    0.2875    0.0000 C   0  0  0  0  0  0  0  0  0  0  0  0
    0.8375   -0.0625    0.0000 C   0  0  0  0  0  0  0  0  0  0  0  0
    1.4417   -1.8417    0.0000 C   0  0  0  0  0  0  0  0  0  0  0  0
    2.7375   -0.9875    0.0000 C   0  0  0  0  0  0  0  0  0  0  0  0
    3.9625    0.8708    0.0000 C   0  0  0  0  0  0  0  0  0  0  0  0
   -0.4000   -0.7750    0.0000 C   0  0  0  0  0  0  0  0  0  0  0  0
    0.8375   -2.1917    0.0000 C   0  0  0  0  0  0  0  0  0  0  0  0
   -1.0125   -1.8417    0.0000 C   0  0  0  0  0  0  0  0  0  0  0  0
    3.1417   -0.4125    0.0000 C   0  0  0  0  0  0  0  0  0  0  0  0
   -1.6375   -2.2000    0.0000 O   0  0  0  0  0  0  0  0  0  0  0  0
   -1.0125   -1.1250    0.0000 C   0  0  0  0  0  0  0  0  0  0  0  0
    2.7292    0.8583    0.0000 O   0  0  0  0  0  0  0  0  0  0  0  0
    2.0625    0.6458    0.0000 C   0  0  0  0  0  0  0  0  0  0  0  0
    0.2250   -0.4250    0.0000 H   0  0  0  0  0  0  0  0  0  0  0  0
    2.0625   -1.4792    0.0000 H   0  0  0  0  0  0  0  0  0  0  0  0
    1.4417   -0.4250    0.0000 H   0  0  0  0  0  0  0  0  0  0  0  0
    0.8375   -1.4792    0.0000 H   0  0  0  0  0  0  0  0  0  0  0  0
  2  1  1  0
  3  6  1  0
  4  2  1  0
  5  4  1  0
  6  5  1  0
  7  1  1  0
  8  3  2  0
  9  7  1  0
 10  1  1  0
 11 10  1  0
 12  4  1  0
 13  2  1  0
 14  9  3  0
 15  6  1  0
 16 12  1  0
 17  8  1  0
 18  7  1  0
 19 17  2  0
 20 15  1  0
  7 21  1  1
  1 22  1  1
  6 23  1  1
  2 24  1  6
  4 25  1  1
  5 26  1  6
 11  5  1  0
 18 13  1  0
  3 16  1  0
 20 17  1  0
M  END
> <chembl_id>
CHEMBL1162

> <chembl_pref_name>
NORETHINDRONE

$$$$

     RDKit          2D

 11 10  0  0  0  0  0  0  0  0999 V2000
    3.3375   -4.4667    0.0000 Cl  0  0  0  0  0  0  0  0  0  0  0  0
    4.1417   -4.5042    0.0000 N   0  0  0  0  0  0  0  0  0  0  0  0
    4.7667   -4.8667    0.0000 C   0  0  0  0  0  0  0  0  0  0  0  0
    5.9875   -4.8667    0.0000 N   0  0  0  0  0  0  0  0  0  0  0  0
    5.3750   -4.5042    0.0000 C   0  0  0  0  0  0  0  0  0  0  0  0
    4.1417   -3.8042    0.0000 C   0  0  0  0  0  0  0  0  0  0  0  0
    3.5375   -4.8667    0.0000 C   0  0  0  0  0  0  0  0  0  0  0  0
    6.6042   -4.5042    0.0000 O   0  0  0  0  0  0  0  0  0  0  0  0
    4.7667   -5.5792    0.0000 C   0  0  0  0  0  0  0  0  0  0  0  0
    3.5375   -5.5792    0.0000 C   0  0  0  0  0  0  0  0  0  0  0  0
    4.1417   -5.9375    0.0000 C   0  0  0  0  0  0  0  0  0  0  0  0
  3  2  2  0
  4  5  2  0
  5  3  1  0
  6  2  1  0
  7  2  1  0
  8  4  1  0
  9  3  1  0
 10  7  2  0
 11 10  1  0
 11  9  2  0
M  CHG  2   1  -1   2   1
M  END
> <chembl_id>
CHEMBL748

> <chembl_pref_name>
PRALIDOXIME CHLORIDE

$$$$

     RDKit          2D

  8  6  0  0  0  0  0  0  0  0999 V2000
    5.8917   -6.9042    0.0000 Na  0  0  0  0  0 15  0  0  0  0  0  0
    4.6250   -6.5542    0.0000 C   0  0  0  0  0  0  0  0  0  0  0  0
    5.2417   -6.9167    0.0000 O   0  0  0  0  0  0  0  0  0  0  0  0
    4.6250   -5.8625    0.0000 O   0  0  0  0  0  0  0  0  0  0  0  0
    2.1625   -6.5667    0.0000 O   0  0  0  0  0  0  0  0  0  0  0  0
    4.0042   -6.9167    0.0000 C   0  0  0  0  0  0  0  0  0  0  0  0
    2.7792   -6.9167    0.0000 C   0  0  0  0  0  0  0  0  0  0  0  0
    3.4000   -6.5542    0.0000 C   0  0  0  0  0  0  0  0  0  0  0  0
  3  2  1  0
  4  2  2  0
  5  7  1  0
  6  2  1  0
  7  8  1  0
  8  6  1  0
M  CHG  2   1   1   3  -1
M  END
> <chembl_id>
CHEMBL1200682

> <chembl_pref_name>
SODIUM OXYBATE

$$$$

     RDKit          2D

 12 11  0  0  0  0  0  0  0  0999 V2000
    3.7750   -6.5292    0.0000 Cl  0  0  0  0  0  0  0  0  0  0  0  0
    6.2292   -5.8667    0.0000 C   0  0  0  0  0  0  0  0  0  0  0  0
    6.2417   -6.5792    0.0000 C   0  0  0  0  0  0  0  0  0  0  0  0
    5.6167   -5.5292    0.0000 C   0  0  0  0  0  0  0  0  0  0  0  0
    5.6292   -6.9417    0.0000 C   0  0  0  0  0  0  0  0  0  0  0  0
    5.0125   -5.8875    0.0000 C   0  0  0  0  0  0  0  0  0  0  0  0
    6.8500   -5.5125    0.0000 O   0  0  0  0  0  0  0  0  0  0  0  0
    5.0125   -6.5917    0.0000 C   0  0  0  0  0  0  0  0  0  0  0  0
    6.8667   -6.9292    0.0000 O   0  0  0  0  0  0  0  0  0  0  0  0
    3.1625   -5.5500    0.0000 N   0  0  0  0  0  0  0  0  0  0  0  0
    3.7792   -5.9000    0.0000 C   0  0  0  0  0  0  0  0  0  0  0  0
    4.3875   -5.5292    0.0000 C   0  0  0  0  0  0  0  0  0  0  0  0
  3  2  1  0
  4  2  2  0
  5  3  2  0
  6  4  1  0
  7  2  1  0
  8  6  2  0
  9  3  1  0
 10 11  1  0
 11 12  1  0
 12  6  1  0
  8  5  1  0
M  END
> <chembl_id>
CHEMBL1557

> <chembl_pref_name>
DOPAMINE HYDROCHLORIDE

$$$$

     RDKit          2D

 16 14  0  0  0  0  0  0  0  0999 V2000
    1.8562   -0.2062    0.0000 O   0  0  0  0  0  0  0  0  0  0  0  0
   -0.2041   -0.5893    0.0000 S   0  0  0  0  0  0  0  0  0  0  0  0
   -0.2041   -1.4143    0.0000 N   0  0  0  0  0  0  0  0  0  0  0  0
   -0.2041    0.2357    0.0000 C   0  0  0  0  0  0  0  0  0  0  0  0
    0.5103   -1.8268    0.0000 C   0  0  0  0  0  0  0  0  0  0  0  0
    0.6209   -0.5893    0.0000 O   0  0  0  0  0  0  0  0  0  0  0  0
   -1.0291   -0.5893    0.0000 O   0  0  0  0  0  0  0  0  0  0  0  0
    0.5103   -2.6518    0.0000 O   0  0  0  0  0  0  0  0  0  0  0  0
    0.5103    0.6482    0.0000 C   0  0  0  0  0  0  0  0  0  0  0  0
   -0.9186    0.6482    0.0000 C   0  0  0  0  0  0  0  0  0  0  0  0
   -0.2041    1.8857    0.0000 C   0  0  0  0  0  0  0  0  0  0  0  0
   -0.2041    2.7107    0.0000 N   0  0  0  0  0  0  0  0  0  0  0  0
   -0.9186    1.4732    0.0000 C   0  0  0  0  0  0  0  0  0  0  0  0
    0.5103    1.4732    0.0000 C   0  0  0  0  0  0  0  0  0  0  0  0
    1.2248   -1.4143    0.0000 C   0  0  0  0  0  0  0  0  0  0  0  0
    3.4641    0.0000    0.0000 Na  0  0  0  0  0 15  0  0  0  0  0  0
  3  2  1  0
  4  2  1  0
  5  3  1  0
  6  2  2  0
  7  2  2  0
  8  5  2  0
  9  4  2  0
 10  4  1  0
 11 13  1  0
 12 11  1  0
 13 10  2  0
 14  9  1  0
 15  5  1  0
 14 11  2  0
M  CHG  2   3  -1  16   1
M  END
> <chembl_id>
CHEMBL1723241

> <chembl_pref_name>
SULFACETAMIDE SODIUM

$$$$

     RDKit          2D

 14 15  0  0  0  0  0  0  0  0999 V2000
    0.1375   -0.6292    0.0000 C   0  0  0  0  0  0  0  0  0  0  0  0
    0.1417    0.7583    0.0000 C   0  0  0  0  0  0  0  0  0  0  0  0
   -1.0958   -1.3750    0.0000 C   0  0  0  0  0  0  0  0  0  0  0  0
    1.3667   -1.3750    0.0000 N   0  0  0  0  0  0  0  0  0  0  0  0
   -2.3458   -0.6417    0.0000 C   0  0  0  0  0  0  0  0  0  0  0  0
   -1.1000    1.5000    0.0000 C   0  0  0  0  0  0  0  0  0  0  0  0
   -2.3458    0.7750    0.0000 C   0  0  0  0  0  0  0  0  0  0  0  0
    1.3792    1.4958    0.0000 C   0  0  0  0  0  0  0  0  0  0  0  0
    2.6167   -0.6417    0.0000 C   0  0  0  0  0  0  0  0  0  0  0  0
   -1.0833   -2.8000    0.0000 O   0  0  0  0  0  0  0  0  0  0  0  0
   -3.5958   -1.3375    0.0000 Cl  0  0  0  0  0  0  0  0  0  0  0  0
   -1.1000    2.9333    0.0000 Cl  0  0  0  0  0  0  0  0  0  0  0  0
    2.6250    0.7625    0.0000 C   0  0  0  0  0  0  0  0  0  0  0  0
    3.8667   -1.3375    0.0000 C   0  0  0  0  0  0  0  0  0  0  0  0
  2  1  1  0
  3  1  1  0
  4  1  2  0
  5  3  2  0
  6  2  1  0
  7  5  1  0
  8  2  2  0
  9  4  1  0
 10  3  1  0
 11  5  1  0
 12  6  1  0
 13  9  2  0
 14  9  1  0
  8 13  1  0
  6  7  2  0
M  END
> <chembl_id>
CHEMBL224325

> <chembl_pref_name>
CHLORQUINALDOL

$$$$

     RDKit          2D

 19 18  0  0  0  0  0  0  0  0999 V2000
    4.0875   -1.5125    0.0000 O   0  0  0  0  0  0  0  0  0  0  0  0
    1.0167   -0.5875    0.0000 C   0  0  0  0  0  0  0  0  0  0  0  0
    1.0167   -1.2917    0.0000 N   0  0  0  0  0  0  0  0  0  0  0  0
    1.6000   -1.6292    0.0000 C   0  0  0  0  0  0  0  0  0  0  0  0
    1.6167   -0.2375    0.0000 N   0  0  0  0  0  0  0  0  0  0  0  0
    2.1792   -1.9667    0.0000 N   0  0  0  0  0  0  0  0  0  0  0  0
    0.4000   -0.2417    0.0000 N   0  0  0  0  0  0  0  0  0  0  0  0
    2.2167   -0.5667    0.0000 C   0  0  0  0  0  0  0  0  0  0  0  0
    2.8250   -0.2167    0.0000 C   0  0  0  0  0  0  0  0  0  0  0  0
   -1.4250   -1.3042    0.0000 N   0  0  0  0  0  0  0  0  0  0  0  0
   -0.2083   -0.6000    0.0000 C   0  0  0  0  0  0  0  0  0  0  0  0
   -0.2083   -1.3042    0.0000 C   0  0  0  0  0  0  0  0  0  0  0  0
   -0.8208   -0.2417    0.0000 C   0  0  0  0  0  0  0  0  0  0  0  0
   -1.4250   -0.6000    0.0000 C   0  0  0  0  0  0  0  0  0  0  0  0
   -0.8208   -1.6542    0.0000 C   0  0  0  0  0  0  0  0  0  0  0  0
    3.1750    0.4000    0.0000 C   0  0  0  0  0  0  0  0  0  0  0  0
    2.4667    0.4000    0.0000 C   0  0  0  0  0  0  0  0  0  0  0  0
    3.4417   -0.5542    0.0000 C   0  0  0  0  0  0  0  0  0  0  0  0
    2.2167   -1.2667    0.0000 C   0  0  0  0  0  0  0  0  0  0  0  0
  3  2  2  0
  4  3  1  0
  5  2  1  0
  6  4  3  0
  7  2  1  0
  8  5  1  0
  9  8  1  0
 10 14  1  0
 11  7  1  0
 12 11  2  0
 13 11  1  0
 14 13  2  0
 15 12  1  0
 16  9  1  0
 17  9  1  0
 18  9  1  0
 19  8  1  0
 10 15  2  0
M  END
> <chembl_id>
CHEMBL1200338

> <chembl_pref_name>
PINACIDIL

$$$$

     RDKit          2D

 18 18  0  0  0  0  0  0  0  0999 V2000
    1.0167   -0.5875    0.0000 C   0  0  0  0  0  0  0  0  0  0  0  0
    1.0167   -1.2917    0.0000 N   0  0  0  0  0  0  0  0  0  0  0  0
    1.6000   -1.6292    0.0000 C   0  0  0  0  0  0  0  0  0  0  0  0
    1.6167   -0.2375    0.0000 N   0  0  0  0  0  0  0  0  0  0  0  0
    2.1792   -1.9667    0.0000 N   0  0  0  0  0  0  0  0  0  0  0  0
    0.4000   -0.2417    0.0000 N   0  0  0  0  0  0  0  0  0  0  0  0
    2.2167   -0.5667    0.0000 C   0  0  0  0  0  0  0  0  0  0  0  0
    2.8250   -0.2167    0.0000 C   0  0  0  0  0  0  0  0  0  0  0  0
   -1.4250   -1.3042    0.0000 N   0  0  0  0  0  0  0  0  0  0  0  0
   -0.2083   -0.6000    0.0000 C   0  0  0  0  0  0  0  0  0  0  0  0
   -0.2083   -1.3042    0.0000 C   0  0  0  0  0  0  0  0  0  0  0  0
   -0.8208   -0.2417    0.0000 C   0  0  0  0  0  0  0  0  0  0  0  0
   -1.4250   -0.6000    0.0000 C   0  0  0  0  0  0  0  0  0  0  0  0
   -0.8208   -1.6542    0.0000 C   0  0  0  0  0  0  0  0  0  0  0  0
    3.1750    0.4000    0.0000 C   0  0  0  0  0  0  0  0  0  0  0  0
    2.4667    0.4000    0.0000 C   0  0  0  0  0  0  0  0  0  0  0  0
    3.4417   -0.5542    0.0000 C   0  0  0  0  0  0  0  0  0  0  0  0
    2.2167   -1.2667    0.0000 C   0  0  0  0  0  0  0  0  0  0  0  0
  2  1  2  0
  3  2  1  0
  4  1  1  0
  5  3  3  0
  6  1  1  0
  7  4  1  0
  8  7  1  0
  9 13  1  0
 10  6  1  0
 11 10  2  0
 12 10  1  0
 13 12  2  0
 14 11  1  0
 15  8  1  0
 16  8  1  0
 17  8  1  0
 18  7  1  0
  9 14  2  0
M  END
> <chembl_id>
CHEMBL1159

> <chembl_pref_name>
PINACIDIL

$$$$

     RDKit          2D

 19 19  0  0  0  0  0  0  0  0999 V2000
    0.0000    1.6477    0.0000 C   0  0  0  0  0  0  0  0  0  0  0  0
    1.4283    0.0000    0.0000 N   0  0  0  0  0  0  0  0  0  0  0  0
    2.1443    2.8834    0.0000 O   0  0  0  0  0  0  0  0  0  0  0  0
    0.7155    2.8845    0.0000 O   0  0  0  0  0  0  0  0  0  0  0  0
    5.9259    2.5096    0.0000 F   0  0  0  0  0  0  0  0  0  0  0  0
    5.7107    4.1284    0.0000 F   0  0  0  0  0  0  0  0  0  0  0  0
    6.4298    2.8936    0.0000 F   0  0  0  0  0  0  0  0  0  0  0  0
    1.4289    0.8249    0.0000 C   0  0  0  0  0  0  0  0  0  0  0  0
    4.2873    1.6445    0.0000 C   0  0  0  0  0  0  0  0  0  0  0  0
    5.0037    2.0578    0.0000 C   0  0  0  0  0  0  0  0  0  0  0  0
    4.2855    3.2974    0.0000 C   0  0  0  0  0  0  0  0  0  0  0  0
    3.5737    2.8846    0.0000 C   0  0  0  0  0  0  0  0  0  0  0  0
    2.8578    1.6454    0.0000 N   0  0  0  0  0  0  0  0  0  0  0  0
    0.7148    2.0596    0.0000 C   0  0  0  0  0  0  0  0  0  0  0  0
    2.1437    2.0585    0.0000 C   0  0  0  0  0  0  0  0  0  0  0  0
    1.4289    1.6465    0.0000 C   0  0  0  0  0  0  0  0  0  0  0  0
    5.0008    2.8882    0.0000 C   0  0  0  0  0  0  0  0  0  0  0  0
    3.5725    2.0573    0.0000 C   0  0  0  0  0  0  0  0  0  0  0  0
    5.7138    3.3034    0.0000 C   0  0  0  0  0  0  0  0  0  0  0  0
  1 14  1  0
  2  8  3  0
  3 15  2  0
  4 14  1  0
  5 19  1  0
  6 19  1  0
  7 19  1  0
  8 16  1  0
  9 10  2  0
  9 18  1  0
 10 17  1  0
 11 12  1  0
 11 17  2  0
 12 18  2  0
 13 15  1  0
 13 18  1  0
 14 16  2  0
 15 16  1  0
 17 19  1  0
M  END
> <chembl_id>
CHEMBL973

> <chembl_pref_name>
TERIFLUNOMIDE

$$$$

     RDKit          2D

 10  0  0  0  0  0  0  0  0  0999 V2000
   -1.0030   -4.0350    0.0000 Cl  0  0  0  0  0  0  0  0  0  0  0  0
   -2.9713   -3.2179    0.0000 O   0  0  0  0  0  0  0  0  0  0  0  0
   -0.3954   -3.2371    0.0000 O   0  0  0  0  0  0  0  0  0  0  0  0
    0.1626   -4.4060    0.0000 O   0  0  0  0  0  0  0  0  0  0  0  0
   -3.6255   -4.5528    0.0000 O   0  0  0  0  0  0  0  0  0  0  0  0
   -2.7765   -6.0536    0.0000 O   0  0  0  0  0  0  0  0  0  0  0  0
   -0.6671   -6.0753    0.0000 O   0  0  0  0  0  0  0  0  0  0  0  0
   -1.9149   -4.6505    0.0000 Al  0  0  0  0  0 15  0  0  0  0  0  0
   -2.5988   -4.0578    0.0000 Cl  0  0  0  0  0  0  0  0  0  0  0  0
   -1.9149   -5.6535    0.0000 Cl  0  0  0  0  0  0  0  0  0  0  0  0
M  CHG  4   1  -1   8   3   9  -1  10  -1
M  END
> <chembl_id>
CHEMBL3833314

> <chembl_pref_name>
ALUMINUM CHLORIDE

$$$$

     RDKit          2D

 22 25  0  0  0  0  0  0  0  0999 V2000
   -0.3250    0.1000    0.0000 C   0  0  0  0  0  0  0  0  0  0  0  0
   -0.3375   -0.6125    0.0000 C   0  0  0  0  0  0  0  0  0  0  0  0
   -1.0125   -0.8292    0.0000 N   0  0  0  0  0  0  0  0  0  0  0  0
   -0.9917    0.3042    0.0000 C   0  0  0  0  0  0  0  0  0  0  0  0
    0.2833    0.4625    0.0000 C   0  0  0  0  0  0  0  0  0  0  0  0
   -1.4250   -0.2250    0.0000 C   0  0  0  0  0  0  0  0  0  0  0  0
    2.1167    0.1667    0.0000 N   0  0  0  0  0  0  0  0  0  0  0  0
    0.8958    0.1167    0.0000 C   0  0  0  0  0  0  0  0  0  0  0  0
    2.3125   -0.5292    0.0000 C   0  0  0  0  0  0  0  0  0  0  0  0
    3.0208   -0.5333    0.0000 N   0  0  0  0  0  0  0  0  0  0  0  0
    1.4917    0.4833    0.0000 C   0  0  0  0  0  0  0  0  0  0  0  0
    0.2792   -0.9583    0.0000 C   0  0  0  0  0  0  0  0  0  0  0  0
    3.2458    0.1542    0.0000 C   0  0  0  0  0  0  0  0  0  0  0  0
    2.6833    0.5500    0.0000 C   0  0  0  0  0  0  0  0  0  0  0  0
    0.9000   -0.6000    0.0000 C   0  0  0  0  0  0  0  0  0  0  0  0
    0.2833    1.1625    0.0000 O   0  0  0  0  0  0  0  0  0  0  0  0
   -1.2250   -1.5167    0.0000 C   0  0  0  0  0  0  0  0  0  0  0  0
   -1.2417    0.9750    0.0000 C   0  0  0  0  0  0  0  0  0  0  0  0
   -2.1292   -0.1375    0.0000 C   0  0  0  0  0  0  0  0  0  0  0  0
    1.9542   -1.1375    0.0000 C   0  0  0  0  0  0  0  0  0  0  0  0
   -1.9458    1.0875    0.0000 C   0  0  0  0  0  0  0  0  0  0  0  0
   -2.4042    0.5250    0.0000 C   0  0  0  0  0  0  0  0  0  0  0  0
  2  1  2  0
  3  2  1  0
  4  1  1  0
  5  1  1  0
  6  4  1  0
  7 11  1  0
  8  5  1  0
  9  7  1  0
 10  9  2  0
 11  8  1  0
 12  2  1  0
 13 14  2  0
 14  7  1  0
 15  8  1  0
 16  5  2  0
 17  3  1  0
 18  4  2  0
 19  6  2  0
 20  9  1  0
 21 18  1  0
 22 21  2  0
  3  6  1  0
 15 12  1  0
 22 19  1  0
 13 10  1  0
M  END
> <chembl_id>
CHEMBL46

> <chembl_pref_name>
ONDANSETRON

$$$$

     RDKit          2D

 16 12  0  0  0  0  0  0  0  0999 V2000
    1.2581    1.4639    0.0000 Na  0  0  0  0  0 15  0  0  0  0  0  0
    2.4508   -0.1124    0.0000 Na  0  0  0  0  0 15  0  0  0  0  0  0
   -2.4508   -1.1209    0.0000 Na  0  0  0  0  0 15  0  0  0  0  0  0
    1.0068   -0.3020    0.0000 C   0  0  0  0  0  0  0  0  0  0  0  0
    0.5943    0.4125    0.0000 C   0  0  0  0  0  0  0  0  0  0  0  0
   -0.2307    0.4125    0.0000 C   0  0  0  0  0  0  0  0  0  0  0  0
   -1.0557    0.4125    0.0000 O   0  0  0  0  0  0  0  0  0  0  0  0
   -0.2307    1.2375    0.0000 C   0  0  0  0  0  0  0  0  0  0  0  0
   -0.2307   -0.4125    0.0000 C   0  0  0  0  0  0  0  0  0  0  0  0
   -0.9452   -0.8250    0.0000 C   0  0  0  0  0  0  0  0  0  0  0  0
    0.5943   -1.0164    0.0000 O   0  0  0  0  0  0  0  0  0  0  0  0
    1.8318   -0.3020    0.0000 O   0  0  0  0  0  0  0  0  0  0  0  0
   -0.9452    1.6500    0.0000 O   0  0  0  0  0  0  0  0  0  0  0  0
    0.4838    1.6500    0.0000 O   0  0  0  0  0  0  0  0  0  0  0  0
   -0.9452   -1.6500    0.0000 O   0  0  0  0  0  0  0  0  0  0  0  0
   -1.6596   -0.4125    0.0000 O   0  0  0  0  0  0  0  0  0  0  0  0
  4  5  1  0
  5  6  1  0
  6  7  1  0
  6  8  1  0
  6  9  1  0
  9 10  1  0
  4 11  2  0
  4 12  1  0
  8 13  2  0
  8 14  1  0
 10 15  2  0
 10 16  1  0
M  CHG  6   1   1   2   1   3   1  12  -1  14  -1  16  -1
M  END
> <chembl_id>
CHEMBL1355

> <chembl_pref_name>
SODIUM CITRATE

$$$$

     RDKit          2D

 17 17  0  0  0  0  0  0  0  0999 V2000
    5.2417   -2.9042    0.0000 Na  0  0  0  0  0 15  0  0  0  0  0  0
    3.9417   -0.6292    0.0000 S   0  0  0  0  0  0  0  0  0  0  0  0
    3.2667   -1.5542    0.0000 N   0  0  0  0  0  0  0  0  0  0  0  0
    4.3583   -1.2042    0.0000 C   0  0  0  0  0  0  0  0  0  0  0  0
    3.2667   -0.8500    0.0000 C   0  0  0  0  0  0  0  0  0  0  0  0
    3.9417   -1.7750    0.0000 C   0  0  0  0  0  0  0  0  0  0  0  0
    2.5625   -1.5542    0.0000 C   0  0  0  0  0  0  0  0  0  0  0  0
    2.5625   -0.8500    0.0000 C   0  0  0  0  0  0  0  0  0  0  0  0
    3.9375   -2.4792    0.0000 C   0  0  0  0  0  0  0  0  0  0  0  0
    3.5792   -0.0125    0.0000 O   0  0  0  0  0  0  0  0  0  0  0  0
    4.2917   -0.0125    0.0000 O   0  0  0  0  0  0  0  0  0  0  0  0
    2.0583   -2.0583    0.0000 O   0  0  0  0  0  0  0  0  0  0  0  0
    4.5458   -2.8417    0.0000 O   0  0  0  0  0  0  0  0  0  0  0  0
    3.3167   -2.8292    0.0000 O   0  0  0  0  0  0  0  0  0  0  0  0
    4.9667   -1.5542    0.0000 C   0  0  0  0  0  0  0  0  0  0  0  0
    4.9667   -0.8417    0.0000 C   0  0  0  0  0  0  0  0  0  0  0  0
    3.2625   -0.1375    0.0000 H   0  0  0  0  0  0  0  0  0  0  0  0
  3  5  1  0
  4  2  1  0
  5  2  1  0
  6  4  1  0
  7  8  1  0
  8  5  1  0
  6  9  1  6
 10  2  2  0
 11  2  2  0
 12  7  2  0
 13  9  1  0
 14  9  2  0
 15  4  1  0
 16  4  1  0
  5 17  1  6
  6  3  1  0
  3  7  1  0
M  CHG  2   1   1  13  -1
M  END
> <chembl_id>
CHEMBL1200944

> <chembl_pref_name>
SULBACTAM SODIUM

$$$$

     RDKit          2D

 20 21  0  0  0  0  0  0  0  0999 V2000
    0.0000    3.3708    0.0000 Cl  0  0  0  0  0  0  0  0  0  0  0  0
    0.1542   -0.5042    0.0000 C   0  0  0  0  0  0  0  0  0  0  0  0
   -0.3958   -1.6917    0.0000 C   0  0  0  0  0  0  0  0  0  0  0  0
    1.4042   -0.0792    0.0000 C   0  0  0  0  0  0  0  0  0  0  0  0
    3.0250   -1.9000    0.0000 N   0  0  0  0  0  0  0  0  0  0  0  0
    2.6000   -0.6542    0.0000 C   0  0  0  0  0  0  0  0  0  0  0  0
    0.0125   -2.9375    0.0000 O   0  0  0  0  0  0  0  0  0  0  0  0
   -1.7125   -1.6125    0.0000 C   0  0  0  0  0  0  0  0  0  0  0  0
    1.2000   -3.5167    0.0000 C   0  0  0  0  0  0  0  0  0  0  0  0
    2.4417   -3.0917    0.0000 C   0  0  0  0  0  0  0  0  0  0  0  0
   -0.8125    0.3375    0.0000 C   0  0  0  0  0  0  0  0  0  0  0  0
    4.3417   -1.9875    0.0000 C   0  0  0  0  0  0  0  0  0  0  0  0
    1.6625    1.1958    0.0000 C   0  0  0  0  0  0  0  0  0  0  0  0
   -2.3000   -0.4292    0.0000 C   0  0  0  0  0  0  0  0  0  0  0  0
   -2.4375   -2.7167    0.0000 C   0  0  0  0  0  0  0  0  0  0  0  0
   -0.5583    1.6250    0.0000 C   0  0  0  0  0  0  0  0  0  0  0  0
    0.6625    2.0583    0.0000 C   0  0  0  0  0  0  0  0  0  0  0  0
   -3.6083   -0.3542    0.0000 C   0  0  0  0  0  0  0  0  0  0  0  0
   -3.7458   -2.6292    0.0000 C   0  0  0  0  0  0  0  0  0  0  0  0
   -4.3458   -1.4500    0.0000 C   0  0  0  0  0  0  0  0  0  0  0  0
  3  2  1  0
  4  2  1  0
  5  6  1  0
  6  4  1  0
  7  3  1  0
  8  3  1  0
  9  7  1  0
 10  5  1  0
 11  2  2  0
 12  5  1  0
 13  4  2  0
 14  8  2  0
 15  8  1  0
 16 11  1  0
 17 16  2  0
 18 14  1  0
 19 15  2  0
 20 18  2  0
 13 17  1  0
  9 10  1  0
 19 20  1  0
M  END
> <chembl_id>
CHEMBL1407915

> <chembl_pref_name>
NEFOPAM HYDROCHLORIDE

$$$$

     RDKit          2D

 14 15  0  0  0  0  0  0  0  0999 V2000
   -2.0208   -0.5292    0.0000 C   0  0  0  0  0  0  0  0  0  0  0  0
    0.0375    0.6583    0.0000 C   0  0  0  0  0  0  0  0  0  0  0  0
   -2.7083    0.6583    0.0000 C   0  0  0  0  0  0  0  0  0  0  0  0
   -0.6458   -0.5292    0.0000 C   0  0  0  0  0  0  0  0  0  0  0  0
   -2.0208    1.8583    0.0000 N   0  0  0  0  0  0  0  0  0  0  0  0
   -0.5708    1.8583    0.0000 C   0  0  0  0  0  0  0  0  0  0  0  0
   -4.0833    0.6583    0.0000 O   0  0  0  0  0  0  0  0  0  0  0  0
    1.4417    0.6583    0.0000 C   0  0  0  0  0  0  0  0  0  0  0  0
    4.1917    0.6583    0.0000 N   0  0  0  0  0  0  0  0  0  0  0  0
   -2.7375   -1.7292    0.0000 N   0  0  0  0  0  0  0  0  0  0  0  0
    3.5042    1.8583    0.0000 C   0  0  0  0  0  0  0  0  0  0  0  0
    3.5042   -0.5292    0.0000 C   0  0  0  0  0  0  0  0  0  0  0  0
    2.1292    1.8583    0.0000 C   0  0  0  0  0  0  0  0  0  0  0  0
    2.1292   -0.5292    0.0000 C   0  0  0  0  0  0  0  0  0  0  0  0
  2  4  1  0
  3  1  1  0
  4  1  2  0
  5  3  1  0
  6  2  2  0
  7  3  2  0
  8  2  1  0
  9 12  2  0
 10  1  1  0
 11 13  2  0
 12 14  1  0
 13  8  1  0
 14  8  2  0
  5  6  1  0
 11  9  1  0
M  END
> <chembl_id>
CHEMBL12856

> <chembl_pref_name>
INAMRINONE

$$$$

     RDKit          2D

 14 16  0  0  1  0  0  0  0  0999 V2000
    5.2042   -2.9083    0.0000 C   0  0  0  0  0  0  0  0  0  0  0  0
    4.6292   -2.4917    0.0000 N   0  0  0  0  0  0  0  0  0  0  0  0
    4.9875   -3.5833    0.0000 N   0  0  0  0  0  0  0  0  0  0  0  0
    4.0583   -2.9083    0.0000 C   0  0  0  0  0  0  0  0  0  0  0  0
    4.2750   -3.5833    0.0000 C   0  0  0  0  0  0  0  0  0  0  0  0
    5.9125   -2.9125    0.0000 S   0  0  0  0  0  0  0  0  0  0  0  0
    3.4417   -2.5542    0.0000 C   0  0  0  0  0  0  0  0  0  0  0  0
    5.5583   -3.9958    0.0000 C   0  0  0  0  0  0  0  0  0  0  0  0
    6.1292   -3.5833    0.0000 C   0  0  0  0  0  0  0  0  0  0  0  0
    3.4417   -1.8417    0.0000 C   0  0  0  0  0  0  0  0  0  0  0  0
    2.8292   -2.9083    0.0000 C   0  0  0  0  0  0  0  0  0  0  0  0
    2.8292   -1.4875    0.0000 C   0  0  0  0  0  0  0  0  0  0  0  0
    2.2167   -2.5542    0.0000 C   0  0  0  0  0  0  0  0  0  0  0  0
    2.2167   -1.8417    0.0000 C   0  0  0  0  0  0  0  0  0  0  0  0
  2  1  2  0
  3  1  1  0
  4  2  1  0
  5  3  1  0
  6  1  1  0
  4  7  1  6
  8  3  1  0
  9  6  1  0
 10  7  1  0
 11  7  2  0
 12 10  2  0
 13 11  1  0
 14 12  1  0
  9  8  1  0
  5  4  1  0
 13 14  2  0
M  END
> <chembl_id>
CHEMBL1454

> <chembl_pref_name>
LEVAMISOLE

$$$$

     RDKit          2D

 20 20  0  0  0  0  0  0  0  0999 V2000
    0.4792   -2.1042    0.0000 C   0  0  0  0  0  0  0  0  0  0  0  0
   -0.4833   -1.5375    0.0000 C   0  0  0  0  0  0  0  0  0  0  0  0
    1.4375   -1.5500    0.0000 O   0  0  0  0  0  0  0  0  0  0  0  0
   -2.3833   -0.4417    0.0000 C   0  0  0  0  0  0  0  0  0  0  0  0
   -3.3833    0.1083    0.0000 N   0  0  0  0  0  0  0  0  0  0  0  0
    0.4667   -3.2250    0.0000 O   0  0  0  0  0  0  0  0  0  0  0  0
   -0.4833   -0.4375    0.0000 C   0  0  0  0  0  0  0  0  0  0  0  0
   -1.4583   -2.1042    0.0000 C   0  0  0  0  0  0  0  0  0  0  0  0
   -1.4333    0.0958    0.0000 C   0  0  0  0  0  0  0  0  0  0  0  0
   -2.4000   -1.5500    0.0000 C   0  0  0  0  0  0  0  0  0  0  0  0
    1.4375   -0.4375    0.0000 C   0  0  0  0  0  0  0  0  0  0  0  0
   -3.3833    1.2208    0.0000 C   0  0  0  0  0  0  0  0  0  0  0  0
   -4.3458   -0.4375    0.0000 C   0  0  0  0  0  0  0  0  0  0  0  0
    2.4167    0.1458    0.0000 C   0  0  0  0  0  0  0  0  0  0  0  0
    3.3792   -0.4250    0.0000 C   0  0  0  0  0  0  0  0  0  0  0  0
    2.4167    1.2583    0.0000 C   0  0  0  0  0  0  0  0  0  0  0  0
    3.3542    2.9333    0.0000 C   0  0  0  0  0  0  0  0  0  0  0  0
    3.3792    1.8208    0.0000 C   0  0  0  0  0  0  0  0  0  0  0  0
    3.3750   -1.5500    0.0000 C   0  0  0  0  0  0  0  0  0  0  0  0
    4.3375    3.5000    0.0000 C   0  0  0  0  0  0  0  0  0  0  0  0
  2  1  1  0
  3  1  1  0
  4 10  1  0
  5  4  1  0
  6  1  2  0
  7  2  2  0
  8  2  1  0
  9  7  1  0
 10  8  2  0
 11  3  1  0
 12  5  1  0
 13  5  1  0
 14 11  1  0
 15 14  1  0
 16 14  1  0
 17 18  1  0
 18 16  1  0
 19 15  1  0
 20 17  1  0
  9  4  2  0
M  END
> <chembl_id>
CHEMBL1323699

> <chembl_pref_name>
PADIMATE O

$$$$

     RDKit          2D

 17 16  0  0  0  0  0  0  0  0999 V2000
    7.3292   -5.8417    0.0000 O   0  0  0  0  0  0  0  0  0  0  0  0
    6.0125   -4.3917    0.0000 C   0  0  0  0  0  0  0  0  0  0  0  0
    6.6167   -4.0542    0.0000 C   0  0  0  0  0  0  0  0  0  0  0  0
    5.4000   -4.0542    0.0000 C   0  0  0  0  0  0  0  0  0  0  0  0
    3.5167   -4.4042    0.0000 C   0  0  0  0  0  0  0  0  0  0  0  0
    6.3500   -4.9792    0.0000 N   0  0  0  0  0  0  0  0  0  0  0  0
    3.5167   -5.1292    0.0000 C   0  0  0  0  0  0  0  0  0  0  0  0
    4.1375   -4.0792    0.0000 C   0  0  0  0  0  0  0  0  0  0  0  0
    4.7625   -4.4042    0.0000 C   0  0  0  0  0  0  0  0  0  0  0  0
    6.6167   -3.3375    0.0000 O   0  0  0  0  0  0  0  0  0  0  0  0
    4.1375   -5.4792    0.0000 C   0  0  0  0  0  0  0  0  0  0  0  0
    7.2375   -4.4042    0.0000 O   0  0  0  0  0  0  0  0  0  0  0  0
    4.7625   -5.1292    0.0000 C   0  0  0  0  0  0  0  0  0  0  0  0
    5.9875   -5.5917    0.0000 N   0  0  0  0  0  0  0  0  0  0  0  0
    2.9125   -4.0542    0.0000 O   0  0  0  0  0  0  0  0  0  0  0  0
    5.6542   -5.0042    0.0000 C   0  0  0  0  0  0  0  0  0  0  0  0
    2.9125   -5.4917    0.0000 O   0  0  0  0  0  0  0  0  0  0  0  0
  3  2  1  0
  4  2  1  0
  5  8  2  0
  6  2  1  0
  7 11  2  0
  8  9  1  0
  9  4  1  0
 10  3  2  0
 11 13  1  0
 12  3  1  0
 13  9  2  0
 14  6  1  0
 15  5  1  0
  2 16  1  6
 17  7  1  0
  5  7  1  0
M  END
> <chembl_id>
CHEMBL1200748

> <chembl_pref_name>
CARBIDOPA

$$$$

     RDKit          2D

 17 18  0  0  0  0  0  0  0  0999 V2000
    3.8792   -7.1917    0.0000 S   0  0  0  0  0  0  0  0  0  0  0  0
    6.3333   -7.1917    0.0000 S   0  0  0  0  0  0  0  0  0  0  0  0
    4.4917   -6.8375    0.0000 C   0  0  0  0  0  0  0  0  0  0  0  0
    5.7167   -6.8375    0.0000 C   0  0  0  0  0  0  0  0  0  0  0  0
    3.2708   -6.8333    0.0000 N   0  0  0  0  0  0  0  0  0  0  0  0
    5.1042   -7.1917    0.0000 C   0  0  0  0  0  0  0  0  0  0  0  0
    4.4958   -6.1292    0.0000 C   0  0  0  0  0  0  0  0  0  0  0  0
    5.7167   -6.1250    0.0000 C   0  0  0  0  0  0  0  0  0  0  0  0
    3.8875   -5.7750    0.0000 N   0  0  0  0  0  0  0  0  0  0  0  0
    5.1042   -5.7708    0.0000 C   0  0  0  0  0  0  0  0  0  0  0  0
    3.2750   -6.1250    0.0000 C   0  0  0  0  0  0  0  0  0  0  0  0
    4.2292   -7.8042    0.0000 O   0  0  0  0  0  0  0  0  0  0  0  0
    3.5167   -7.8042    0.0000 O   0  0  0  0  0  0  0  0  0  0  0  0
    6.6792   -7.8042    0.0000 O   0  0  0  0  0  0  0  0  0  0  0  0
    5.9750   -7.8042    0.0000 O   0  0  0  0  0  0  0  0  0  0  0  0
    6.9458   -6.8333    0.0000 N   0  0  0  0  0  0  0  0  0  0  0  0
    6.3292   -5.7667    0.0000 Cl  0  0  0  0  0  0  0  0  0  0  0  0
  2  4  1  0
  3  1  1  0
  4  6  2  0
  5  1  1  0
  6  3  1  0
  7  3  2  0
  8  4  1  0
  9 11  2  0
 10  7  1  0
 11  5  1  0
 12  1  2  0
 13  1  2  0
 14  2  2  0
 15  2  2  0
 16  2  1  0
 17  8  1  0
  9  7  1  0
 10  8  2  0
M  END
> <chembl_id>
CHEMBL842

> <chembl_pref_name>
CHLOROTHIAZIDE

$$$$

     RDKit          2D

  8  8  0  0  0  0  0  0  0  0999 V2000
   14.5196  -15.2130    0.0000 C   0  0  0  0  0  0  0  0  0  0  0  0
   14.1110  -14.5072    0.0000 O   0  0  0  0  0  0  0  0  0  0  0  0
   15.2253  -15.6216    0.0000 P   0  0  0  0  0  0  0  0  0  0  0  0
   13.7024  -15.2130    0.0000 C   0  0  0  0  0  0  0  0  0  0  0  0
   14.8168  -16.3356    0.0000 O   0  0  0  0  0  0  0  0  0  0  0  0
   15.9435  -16.0302    0.0000 O   0  0  0  0  0  0  0  0  0  0  0  0
   15.6339  -14.9158    0.0000 O   0  0  0  0  0  0  0  0  0  0  0  0
   12.9966  -15.6216    0.0000 C   0  0  0  0  0  0  0  0  0  0  0  0
  2  1  1  0
  1  3  1  6
  4  1  1  0
  5  3  2  0
  6  3  1  0
  7  3  1  0
  4  8  1  6
  4  2  1  0
M  END
> <chembl_id>
CHEMBL1757

> <chembl_pref_name>
FOSFOMYCIN

$$$$

     RDKit          2D

 17 18  0  0  0  0  0  0  0  0999 V2000
    5.1167   -4.4667    0.0000 O   0  0  0  0  0  0  0  0  0  0  0  0
    4.5042   -4.8167    0.0000 C   0  0  0  0  0  0  0  0  0  0  0  0
    5.7292   -4.8167    0.0000 C   0  0  0  0  0  0  0  0  0  0  0  0
    3.8917   -4.4667    0.0000 C   0  0  0  0  0  0  0  0  0  0  0  0
    6.3417   -4.4667    0.0000 C   0  0  0  0  0  0  0  0  0  0  0  0
    3.2792   -4.8167    0.0000 C   0  0  0  0  0  0  0  0  0  0  0  0
    6.9542   -4.8167    0.0000 C   0  0  0  0  0  0  0  0  0  0  0  0
    4.5042   -5.5292    0.0000 C   0  0  0  0  0  0  0  0  0  0  0  0
    5.7292   -5.5292    0.0000 C   0  0  0  0  0  0  0  0  0  0  0  0
    6.9542   -5.5292    0.0000 C   0  0  0  0  0  0  0  0  0  0  0  0
    3.2792   -5.5292    0.0000 C   0  0  0  0  0  0  0  0  0  0  0  0
    3.8917   -3.7625    0.0000 Cl  0  0  0  0  0  0  0  0  0  0  0  0
    6.3417   -3.7625    0.0000 O   0  0  0  0  0  0  0  0  0  0  0  0
    3.8917   -5.8875    0.0000 C   0  0  0  0  0  0  0  0  0  0  0  0
    6.3417   -5.8875    0.0000 C   0  0  0  0  0  0  0  0  0  0  0  0
    7.5625   -5.8875    0.0000 Cl  0  0  0  0  0  0  0  0  0  0  0  0
    2.6667   -5.8875    0.0000 Cl  0  0  0  0  0  0  0  0  0  0  0  0
  2  1  1  0
  3  1  1  0
  4  2  1  0
  5  3  1  0
  6  4  2  0
  7  5  2  0
  8  2  2  0
  9  3  2  0
 10 15  2  0
 11 14  2  0
 12  4  1  0
 13  5  1  0
 14  8  1  0
 15  9  1  0
 16 10  1  0
 17 11  1  0
 10  7  1  0
 11  6  1  0
M  END
> <chembl_id>
CHEMBL849

> <chembl_pref_name>
TRICLOSAN

$$$$

     RDKit          2D

 16 17  0  0  0  0  0  0  0  0999 V2000
   10.4143   -9.0213    0.0000 C   0  0  0  0  0  0  0  0  0  0  0  0
   11.1399   -8.6106    0.0000 C   0  0  0  0  0  0  0  0  0  0  0  0
   10.4095   -9.8363    0.0000 C   0  0  0  0  0  0  0  0  0  0  0  0
   11.8406   -9.0298    0.0000 C   0  0  0  0  0  0  0  0  0  0  0  0
   11.1301  -10.2581    0.0000 N   0  0  0  0  0  0  0  0  0  0  0  0
   11.8357   -9.8448    0.0000 C   0  0  0  0  0  0  0  0  0  0  0  0
    9.6937   -8.6145    0.0000 S   0  0  0  0  0  0  0  0  0  0  0  0
   12.5463  -10.2664    0.0000 C   0  0  0  0  0  0  0  0  0  0  0  0
   12.5561   -8.6191    0.0000 C   0  0  0  0  0  0  0  0  0  0  0  0
   11.1447   -7.7908    0.0000 O   0  0  0  0  0  0  0  0  0  0  0  0
    9.6837   -7.7821    0.0000 O   0  0  0  0  0  0  0  0  0  0  0  0
   13.2644   -9.8532    0.0000 C   0  0  0  0  0  0  0  0  0  0  0  0
   13.2692   -9.0382    0.0000 C   0  0  0  0  0  0  0  0  0  0  0  0
   11.1251  -11.0854    0.0000 C   0  0  0  0  0  0  0  0  0  0  0  0
   13.9999  -10.2651    0.0000 F   0  0  0  0  0  0  0  0  0  0  0  0
    8.9832   -9.0129    0.0000 C   0  0  0  0  0  0  0  0  0  0  0  0
  2  1  1  0
  3  1  2  0
  4  2  1  0
  5  3  1  0
  6  5  1  0
  7  1  1  0
  8  6  1  0
  9  4  1  0
 10  2  2  0
 11  7  1  0
 12  8  2  0
 13  9  2  0
 14  5  1  0
 15 12  1  0
 16  7  1  0
  4  6  2  0
 13 12  1  0
M  CHG  2   7   1  11  -1
M  END
> <chembl_id>
CHEMBL1908307

> <chembl_pref_name>
FLOSEQUINAN

$$$$

     RDKit          2D

 14 14  0  0  0  0  0  0  0  0999 V2000
    1.5167    0.0958    0.0000 C   0  0  0  0  0  0  0  0  0  0  0  0
   -2.6875    0.0833    0.0000 C   0  0  0  0  0  0  0  0  0  0  0  0
   -0.5708    1.2833    0.0000 N   0  0  0  0  0  0  0  0  0  0  0  0
   -4.0833    0.0833    0.0000 N   0  0  0  0  0  0  0  0  0  0  0  0
    2.1917    1.3125    0.0000 C   0  0  0  0  0  0  0  0  0  0  0  0
    2.2167   -1.1000    0.0000 C   0  0  0  0  0  0  0  0  0  0  0  0
   -1.9708    1.2833    0.0000 N   0  0  0  0  0  0  0  0  0  0  0  0
    0.1167    0.0958    0.0000 C   0  0  0  0  0  0  0  0  0  0  0  0
   -1.9875   -1.1500    0.0000 N   0  0  0  0  0  0  0  0  0  0  0  0
    1.5000    2.5083    0.0000 Cl  0  0  0  0  0  0  0  0  0  0  0  0
    1.5000   -2.3792    0.0000 Cl  0  0  0  0  0  0  0  0  0  0  0  0
    4.3417    0.1125    0.0000 C   0  0  0  0  0  0  0  0  0  0  0  0
    3.6042    1.3125    0.0000 C   0  0  0  0  0  0  0  0  0  0  0  0
    3.6542   -1.1000    0.0000 C   0  0  0  0  0  0  0  0  0  0  0  0
  2  7  1  0
  3  8  2  0
  4  2  2  0
  5  1  1  0
  6  1  2  0
  7  3  1  0
  8  1  1  0
  9  2  1  0
 10  5  1  0
 11  6  1  0
 12 14  2  0
 13  5  2  0
 14  6  1  0
 13 12  1  0
M  END
> <chembl_id>
CHEMBL420

> <chembl_pref_name>
GUANABENZ

$$$$

     RDKit          2D

 15 15  0  0  0  0  0  0  0  0999 V2000
    1.4542   -0.6125    0.0000 C   0  0  0  0  0  0  0  0  0  0  0  0
    1.4417   -1.3292    0.0000 C   0  0  0  0  0  0  0  0  0  0  0  0
    0.8500   -0.2500    0.0000 C   0  0  0  0  0  0  0  0  0  0  0  0
    0.8292   -1.6750    0.0000 C   0  0  0  0  0  0  0  0  0  0  0  0
    0.2167   -0.5917    0.0000 C   0  0  0  0  0  0  0  0  0  0  0  0
    0.2167   -1.3042    0.0000 C   0  0  0  0  0  0  0  0  0  0  0  0
    3.3125   -0.2875    0.0000 N   0  0  0  0  0  0  0  0  0  0  0  0
    2.0667   -0.2667    0.0000 C   0  0  0  0  0  0  0  0  0  0  0  0
    2.6875   -0.6292    0.0000 C   0  0  0  0  0  0  0  0  0  0  0  0
   -0.3833   -0.2208    0.0000 O   0  0  0  0  0  0  0  0  0  0  0  0
    0.8167   -2.3792    0.0000 O   0  0  0  0  0  0  0  0  0  0  0  0
    2.0917    0.4458    0.0000 O   0  0  0  0  0  0  0  0  0  0  0  0
    3.9167   -0.6500    0.0000 C   0  0  0  0  0  0  0  0  0  0  0  0
    3.9125   -1.3667    0.0000 C   0  0  0  0  0  0  0  0  0  0  0  0
    4.5417   -0.3042    0.0000 C   0  0  0  0  0  0  0  0  0  0  0  0
  2  1  1  0
  3  1  2  0
  4  2  2  0
  5  3  1  0
  6  4  1  0
  7  9  1  0
  8  1  1  0
  9  8  1  0
 10  5  1  0
 11  4  1  0
 12  8  1  0
 13  7  1  0
 14 13  1  0
 15 13  1  0
  6  5  2  0
M  END
> <chembl_id>
CHEMBL776

> <chembl_pref_name>
METAPROTERENOL

$$$$

     RDKit          2D

 18 17  0  0  0  0  0  0  0  0999 V2000
    5.5042   -7.7292    0.0000 Cl  0  0  0  0  0  0  0  0  0  0  0  0
    4.4667   -6.3542    0.0000 C   0  0  0  0  0  0  0  0  0  0  0  0
    3.8417   -6.6917    0.0000 C   0  0  0  0  0  0  0  0  0  0  0  0
    4.4667   -5.6417    0.0000 O   0  0  0  0  0  0  0  0  0  0  0  0
    3.2292   -6.3542    0.0000 C   0  0  0  0  0  0  0  0  0  0  0  0
    3.8417   -7.4042    0.0000 C   0  0  0  0  0  0  0  0  0  0  0  0
    5.0667   -6.7042    0.0000 O   0  0  0  0  0  0  0  0  0  0  0  0
    2.6042   -7.4042    0.0000 C   0  0  0  0  0  0  0  0  0  0  0  0
    6.9125   -6.3542    0.0000 N   0  0  0  0  0  0  0  0  0  0  0  0
    1.9875   -7.7542    0.0000 N   0  0  0  0  0  0  0  0  0  0  0  0
    2.6125   -6.7042    0.0000 C   0  0  0  0  0  0  0  0  0  0  0  0
    3.2292   -7.7625    0.0000 C   0  0  0  0  0  0  0  0  0  0  0  0
    5.6792   -6.3500    0.0000 C   0  0  0  0  0  0  0  0  0  0  0  0
    6.2917   -6.7042    0.0000 C   0  0  0  0  0  0  0  0  0  0  0  0
    6.9250   -5.6500    0.0000 C   0  0  0  0  0  0  0  0  0  0  0  0
    7.5292   -6.7042    0.0000 C   0  0  0  0  0  0  0  0  0  0  0  0
    7.5375   -5.2917    0.0000 C   0  0  0  0  0  0  0  0  0  0  0  0
    8.1542   -6.3542    0.0000 C   0  0  0  0  0  0  0  0  0  0  0  0
  3  2  1  0
  4  2  2  0
  5  3  2  0
  6  3  1  0
  7  2  1  0
  8 12  1  0
  9 14  1  0
 10  8  1  0
 11  5  1  0
 12  6  2  0
 13  7  1  0
 14 13  1  0
 15  9  1  0
 16  9  1  0
 17 15  1  0
 18 16  1  0
  8 11  2  0
M  END
> <chembl_id>
CHEMBL1200841

> <chembl_pref_name>
PROCAINE HYDROCHLORIDE

$$$$

     RDKit          2D

 19 20  0  0  0  0  0  0  0  0999 V2000
   10.4542   -9.3792    0.0000 S   0  0  0  0  0  0  0  0  0  0  0  0
   11.0667   -9.0208    0.0000 N   0  0  0  0  0  0  0  0  0  0  0  0
   11.6833   -9.3833    0.0000 C   0  0  0  0  0  0  0  0  0  0  0  0
   11.6833  -10.1000    0.0000 N   0  0  0  0  0  0  0  0  0  0  0  0
   12.3000   -9.0250    0.0000 N   0  0  0  0  0  0  0  0  0  0  0  0
    9.8375   -9.0167    0.0000 C   0  0  0  0  0  0  0  0  0  0  0  0
   10.8167   -9.9917    0.0000 O   0  0  0  0  0  0  0  0  0  0  0  0
   10.1042   -9.9917    0.0000 O   0  0  0  0  0  0  0  0  0  0  0  0
   12.9167   -9.3875    0.0000 C   0  0  0  0  0  0  0  0  0  0  0  0
   12.3000  -10.4542    0.0000 C   0  0  0  0  0  0  0  0  0  0  0  0
   12.9167  -10.1000    0.0000 C   0  0  0  0  0  0  0  0  0  0  0  0
    9.2208   -9.3750    0.0000 C   0  0  0  0  0  0  0  0  0  0  0  0
    9.8458   -8.3083    0.0000 C   0  0  0  0  0  0  0  0  0  0  0  0
    8.6083   -8.3042    0.0000 C   0  0  0  0  0  0  0  0  0  0  0  0
    7.9917   -7.9458    0.0000 N   0  0  0  0  0  0  0  0  0  0  0  0
    8.6042   -9.0167    0.0000 C   0  0  0  0  0  0  0  0  0  0  0  0
    9.2292   -7.9500    0.0000 C   0  0  0  0  0  0  0  0  0  0  0  0
   12.2958  -11.1667    0.0000 C   0  0  0  0  0  0  0  0  0  0  0  0
   13.5333   -9.0250    0.0000 C   0  0  0  0  0  0  0  0  0  0  0  0
  2  1  1  0
  3  2  1  0
  4  3  1  0
  5  3  2  0
  6  1  1  0
  7  1  2  0
  8  1  2  0
  9  5  1  0
 10  4  2  0
 11  9  2  0
 12  6  2  0
 13  6  1  0
 14 17  1  0
 15 14  1  0
 16 12  1  0
 17 13  2  0
 18 10  1  0
 19  9  1  0
 14 16  2  0
 10 11  1  0
M  END
> <chembl_id>
CHEMBL446

> <chembl_pref_name>
SULFAMETHAZINE

$$$$

     RDKit          2D

 20 22  0  0  0  0  0  0  0  0999 V2000
   -1.0208   -0.2542    0.0000 C   0  0  0  0  0  0  0  0  0  0  0  0
   -0.3458   -1.2750    0.0000 C   0  0  0  0  0  0  0  0  0  0  0  0
   -1.0208   -2.2542    0.0000 O   0  0  0  0  0  0  0  0  0  0  0  0
   -0.6083    0.9000    0.0000 C   0  0  0  0  0  0  0  0  0  0  0  0
   -2.2083   -0.6250    0.0000 C   0  0  0  0  0  0  0  0  0  0  0  0
   -2.2083   -1.8792    0.0000 C   0  0  0  0  0  0  0  0  0  0  0  0
    0.5750    1.1375    0.0000 C   0  0  0  0  0  0  0  0  0  0  0  0
   -1.4250    1.8208    0.0000 O   0  0  0  0  0  0  0  0  0  0  0  0
    1.4250    0.2583    0.0000 C   0  0  0  0  0  0  0  0  0  0  0  0
    0.9792    2.2875    0.0000 C   0  0  0  0  0  0  0  0  0  0  0  0
    0.9167   -1.2750    0.0000 C   0  0  0  0  0  0  0  0  0  0  0  0
    2.9792    1.6458    0.0000 C   0  0  0  0  0  0  0  0  0  0  0  0
    2.1667    2.5625    0.0000 C   0  0  0  0  0  0  0  0  0  0  0  0
    2.6125    0.4875    0.0000 C   0  0  0  0  0  0  0  0  0  0  0  0
    4.2042    1.8833    0.0000 O   0  0  0  0  0  0  0  0  0  0  0  0
   -3.2583   -0.0167    0.0000 C   0  0  0  0  0  0  0  0  0  0  0  0
   -3.2583   -2.4917    0.0000 C   0  0  0  0  0  0  0  0  0  0  0  0
    1.5250   -2.3542    0.0000 C   0  0  0  0  0  0  0  0  0  0  0  0
   -4.3458   -0.6542    0.0000 C   0  0  0  0  0  0  0  0  0  0  0  0
   -4.3458   -1.8500    0.0000 C   0  0  0  0  0  0  0  0  0  0  0  0
  2  1  2  0
  3  2  1  0
  4  1  1  0
  5  1  1  0
  6  5  2  0
  7  4  1  0
  8  4  2  0
  9  7  2  0
 10  7  1  0
 11  2  1  0
 12 13  1  0
 13 10  2  0
 14  9  1  0
 15 12  1  0
 16  5  1  0
 17  6  1  0
 18 11  1  0
 19 16  2  0
 20 19  1  0
  6  3  1  0
 17 20  2  0
 14 12  2  0
M  END
> <chembl_id>
CHEMBL1474963

> <chembl_pref_name>
BENZARONE

$$$$

     RDKit          2D

 19 20  0  0  0  0  0  0  0  0999 V2000
    0.8292    1.1708    0.0000 C   0  0  0  0  0  0  0  0  0  0  0  0
    3.4125    0.6625    0.0000 C   0  0  0  0  0  0  0  0  0  0  0  0
   -0.0333    0.6833    0.0000 C   0  0  0  0  0  0  0  0  0  0  0  0
   -1.7625   -0.3000    0.0000 C   0  0  0  0  0  0  0  0  0  0  0  0
    3.4042   -0.3292    0.0000 O   0  0  0  0  0  0  0  0  0  0  0  0
    0.8375    2.1708    0.0000 O   0  0  0  0  0  0  0  0  0  0  0  0
   -0.8875    1.1875    0.0000 C   0  0  0  0  0  0  0  0  0  0  0  0
   -0.0375   -0.3167    0.0000 C   0  0  0  0  0  0  0  0  0  0  0  0
   -1.7583    0.6958    0.0000 C   0  0  0  0  0  0  0  0  0  0  0  0
   -0.9000   -0.8000    0.0000 C   0  0  0  0  0  0  0  0  0  0  0  0
    1.6792    0.6708    0.0000 C   0  0  0  0  0  0  0  0  0  0  0  0
   -2.6208   -0.7917    0.0000 C   0  0  0  0  0  0  0  0  0  0  0  0
    2.5542    1.1625    0.0000 C   0  0  0  0  0  0  0  0  0  0  0  0
    4.2667    1.1458    0.0000 O   0  0  0  0  0  0  0  0  0  0  0  0
   -2.6250   -1.7875    0.0000 C   0  0  0  0  0  0  0  0  0  0  0  0
   -3.4750   -0.2875    0.0000 C   0  0  0  0  0  0  0  0  0  0  0  0
   -3.4833   -2.2792    0.0000 C   0  0  0  0  0  0  0  0  0  0  0  0
   -4.3458   -0.7792    0.0000 C   0  0  0  0  0  0  0  0  0  0  0  0
   -4.3458   -1.7792    0.0000 C   0  0  0  0  0  0  0  0  0  0  0  0
  2 13  1  0
  3  1  1  0
  4 10  2  0
  5  2  2  0
  6  1  2  0
  7  3  1  0
  8  3  2  0
  9  7  2  0
 10  8  1  0
 11  1  1  0
 12  4  1  0
 13 11  1  0
 14  2  1  0
 15 12  2  0
 16 12  1  0
 17 15  1  0
 18 16  2  0
 19 18  1  0
  9  4  1  0
 17 19  2  0
M  END
> <chembl_id>
CHEMBL277522

> <chembl_pref_name>
FENBUFEN

$$$$

     RDKit          2D

  5  3  0  0  0  0  0  0  0  0999 V2000
    3.7750   -0.0042    0.0000 Ca  0  0  0  0  0 15  0  0  0  0  0  0
    2.2917   -0.0167    0.0000 C   0  0  0  0  0  0  0  0  0  0  0  0
    2.6500   -0.6292    0.0000 O   0  0  0  0  0  0  0  0  0  0  0  0
    2.6500    0.5958    0.0000 O   0  0  0  0  0  0  0  0  0  0  0  0
    1.5875   -0.0167    0.0000 O   0  0  0  0  0  0  0  0  0  0  0  0
  3  2  1  0
  4  2  1  0
  5  2  2  0
M  CHG  3   1   2   3  -1   4  -1
M  END
> <chembl_id>
CHEMBL1200539

> <chembl_pref_name>
CALCIUM CARBONATE

$$$$

     RDKit          2D

 20 21  0  0  1  0  0  0  0  0999 V2000
    1.6667   -5.8750    0.0000 N   0  0  0  0  0  0  0  0  0  0  0  0
    2.2792   -4.8125    0.0000 C   0  0  0  0  0  0  0  0  0  0  0  0
    1.0583   -5.5167    0.0000 C   0  0  0  0  0  0  0  0  0  0  0  0
    1.0583   -4.8125    0.0000 N   0  0  0  0  0  0  0  0  0  0  0  0
    1.6750   -6.7000    0.0000 C   0  0  0  0  0  0  0  0  0  0  0  0
    1.6667   -4.4542    0.0000 C   0  0  0  0  0  0  0  0  0  0  0  0
    2.2792   -5.5167    0.0000 C   0  0  0  0  0  0  0  0  0  0  0  0
    2.8958   -4.4583    0.0000 C   0  0  0  0  0  0  0  0  0  0  0  0
    1.1000   -6.2792    0.0000 O   0  0  0  0  0  0  0  0  0  0  0  0
    1.4542   -7.3750    0.0000 C   0  0  0  0  0  0  0  0  0  0  0  0
    0.5292   -6.7000    0.0000 C   0  0  0  0  0  0  0  0  0  0  0  0
    0.7500   -7.3750    0.0000 C   0  0  0  0  0  0  0  0  0  0  0  0
    0.4417   -5.8708    0.0000 O   0  0  0  0  0  0  0  0  0  0  0  0
    1.6667   -3.7500    0.0000 O   0  0  0  0  0  0  0  0  0  0  0  0
    3.2458   -3.8417    0.0000 F   0  0  0  0  0  0  0  0  0  0  0  0
    2.5375   -3.8417    0.0000 F   0  0  0  0  0  0  0  0  0  0  0  0
    3.5083   -4.8125    0.0000 F   0  0  0  0  0  0  0  0  0  0  0  0
    0.3333   -7.9458    0.0000 O   0  0  0  0  0  0  0  0  0  0  0  0
   -0.0875   -6.3417    0.0000 C   0  0  0  0  0  0  0  0  0  0  0  0
   -0.7042   -6.6958    0.0000 O   0  0  0  0  0  0  0  0  0  0  0  0
  2  7  2  0
  3  1  1  0
  4  3  1  0
  5  1  1  1
  6  4  1  0
  7  1  1  0
  8  2  1  0
  9  5  1  0
 10  5  1  0
 11  9  1  0
 12 10  1  0
 13  3  2  0
 14  6  2  0
 15  8  1  0
 16  8  1  0
 17  8  1  0
 12 18  1  6
 11 19  1  1
 20 19  1  0
 12 11  1  0
  6  2  1  0
M  END
> <chembl_id>
CHEMBL1129

> <chembl_pref_name>
TRIFLURIDINE

$$$$

     RDKit          2D

 22 23  0  0  0  0  0  0  0  0999 V2000
    2.3167   -0.7917    0.0000 C   0  0  0  0  0  0  0  0  0  0  0  0
   -0.0750    2.5708    0.0000 C   0  0  0  0  0  0  0  0  0  0  0  0
   -0.8750    2.1000    0.0000 N   0  0  0  0  0  0  0  0  0  0  0  0
    3.2167   -0.3250    0.0000 O   0  0  0  0  0  0  0  0  0  0  0  0
    0.7250    2.1125    0.0000 C   0  0  0  0  0  0  0  0  0  0  0  0
    2.3375   -3.4167    0.0000 N   0  0  0  0  0  0  0  0  0  0  0  0
    2.3375   -1.5917    0.0000 C   0  0  0  0  0  0  0  0  0  0  0  0
   -0.0833    3.4875    0.0000 O   0  0  0  0  0  0  0  0  0  0  0  0
    1.5292   -0.3500    0.0000 N   0  0  0  0  0  0  0  0  0  0  0  0
    1.5292    0.7333    0.0000 N   0  0  0  0  0  0  0  0  0  0  0  0
   -0.8833    1.1750    0.0000 C   0  0  0  0  0  0  0  0  0  0  0  0
   -1.6833    0.7208    0.0000 C   0  0  0  0  0  0  0  0  0  0  0  0
    0.7292    1.1958    0.0000 C   0  0  0  0  0  0  0  0  0  0  0  0
    1.5292   -2.9625    0.0000 C   0  0  0  0  0  0  0  0  0  0  0  0
    3.1375   -2.9625    0.0000 C   0  0  0  0  0  0  0  0  0  0  0  0
    1.5292   -2.0500    0.0000 C   0  0  0  0  0  0  0  0  0  0  0  0
    3.1375   -2.0500    0.0000 C   0  0  0  0  0  0  0  0  0  0  0  0
   -2.4750    1.1875    0.0000 C   0  0  0  0  0  0  0  0  0  0  0  0
   -1.6833   -0.2000    0.0000 C   0  0  0  0  0  0  0  0  0  0  0  0
   -3.2833    0.7333    0.0000 C   0  0  0  0  0  0  0  0  0  0  0  0
   -2.4833   -0.6542    0.0000 C   0  0  0  0  0  0  0  0  0  0  0  0
   -3.2833   -0.1917    0.0000 C   0  0  0  0  0  0  0  0  0  0  0  0
  2  5  1  0
  3  2  1  0
  4  1  2  0
  5 13  1  0
  6 15  1  0
  7  1  1  0
  8  2  2  0
  9  1  1  0
 10  9  1  0
 11  3  1  0
 12 11  1  0
 13 10  1  0
 14 16  1  0
 15 17  2  0
 16  7  2  0
 17  7  1  0
 18 12  2  0
 19 12  1  0
 20 18  1  0
 21 19  2  0
 22 21  1  0
 14  6  2  0
 20 22  2  0
M  END
> <chembl_id>
CHEMBL1256841

> <chembl_pref_name>
NIALAMIDE

$$$$

     RDKit          2D

 21 23  0  0  1  0  0  0  0  0999 V2000
    0.5042   -0.8375    0.0000 O   0  0  0  0  0  0  0  0  0  0  0  0
    1.4375   -0.3000    0.0000 C   0  0  0  0  0  0  0  0  0  0  0  0
    1.4375    0.7833    0.0000 C   0  0  0  0  0  0  0  0  0  0  0  0
   -0.4208   -0.3000    0.0000 C   0  0  0  0  0  0  0  0  0  0  0  0
    0.5042    1.3333    0.0000 C   0  0  0  0  0  0  0  0  0  0  0  0
    2.3792    1.3333    0.0000 C   0  0  0  0  0  0  0  0  0  0  0  0
   -1.3958   -0.8250    0.0000 C   0  0  0  0  0  0  0  0  0  0  0  0
   -0.4208    0.7833    0.0000 C   0  0  0  0  0  0  0  0  0  0  0  0
    2.3792   -0.8375    0.0000 C   0  0  0  0  0  0  0  0  0  0  0  0
    3.3292    0.7833    0.0000 C   0  0  0  0  0  0  0  0  0  0  0  0
   -2.2875   -0.2542    0.0000 C   0  0  0  0  0  0  0  0  0  0  0  0
   -3.2625   -0.7542    0.0000 C   0  0  0  0  0  0  0  0  0  0  0  0
    3.3292   -0.3000    0.0000 C   0  0  0  0  0  0  0  0  0  0  0  0
   -3.2625   -1.8417    0.0000 C   0  0  0  0  0  0  0  0  0  0  0  0
   -1.3833   -1.9125    0.0000 C   0  0  0  0  0  0  0  0  0  0  0  0
   -2.3458   -2.4250    0.0000 C   0  0  0  0  0  0  0  0  0  0  0  0
    2.3792    2.4000    0.0000 O   0  0  0  0  0  0  0  0  0  0  0  0
   -1.3583    1.3333    0.0000 O   0  0  0  0  0  0  0  0  0  0  0  0
   -4.1583   -0.2167    0.0000 O   0  0  0  0  0  0  0  0  0  0  0  0
   -4.2083   -2.3250    0.0000 O   0  0  0  0  0  0  0  0  0  0  0  0
    4.2625   -0.8250    0.0000 O   0  0  0  0  0  0  0  0  0  0  0  0
  2  1  1  0
  3  2  1  0
  4  1  1  0
  5  8  1  0
  6  3  2  0
  4  7  1  6
  8  4  1  0
  9  2  2  0
 10 13  2  0
 11  7  1  0
 12 11  2  0
 13  9  1  0
 14 16  2  0
 15  7  2  0
 16 15  1  0
 17  6  1  0
  8 18  1  1
 19 12  1  0
 20 14  1  0
 21 13  1  0
  3  5  1  0
  6 10  1  0
 12 14  1  0
M  END
> <chembl_id>
CHEMBL311498

> <chembl_pref_name>
CIANIDANOL

$$$$

     RDKit          2D

 15 14  0  0  1  0  0  0  0  0999 V2000
    5.6727  -11.0903    0.0000 C   0  0  0  0  0  0  0  0  0  0  0  0
    4.2401  -11.1000    0.0000 C   0  0  0  0  0  0  0  0  0  0  0  0
    4.9564  -10.6810    0.0000 C   0  0  0  0  0  0  0  0  0  0  0  0
    8.5379  -11.0854    0.0000 C   0  0  0  0  0  0  0  0  0  0  0  0
    7.8216  -10.6761    0.0000 C   0  0  0  0  0  0  0  0  0  0  0  0
    5.6727  -11.9235    0.0000 O   0  0  0  0  0  0  0  0  0  0  0  0
    8.5379  -11.9089    0.0000 O   0  0  0  0  0  0  0  0  0  0  0  0
    6.3890  -10.6810    0.0000 N   0  0  0  0  0  0  0  0  0  0  0  0
    7.1053  -11.0903    0.0000 C   0  0  0  0  0  0  0  0  0  0  0  0
    9.2542  -10.6663    0.0000 O   0  0  0  0  0  0  0  0  0  0  0  0
    4.9564   -9.8574    0.0000 O   0  0  0  0  0  0  0  0  0  0  0  0
    3.5238  -10.6907    0.0000 C   0  0  0  0  0  0  0  0  0  0  0  0
    3.8259  -11.8066    0.0000 C   0  0  0  0  0  0  0  0  0  0  0  0
    4.6494  -11.8163    0.0000 C   0  0  0  0  0  0  0  0  0  0  0  0
    2.8075  -11.1049    0.0000 O   0  0  0  0  0  0  0  0  0  0  0  0
  2  3  1  0
  3  1  1  0
  4  5  1  0
  5  9  1  0
  6  1  2  0
  7  4  2  0
  8  1  1  0
  9  8  1  0
 10  4  1  0
  3 11  1  1
 12  2  1  0
 13  2  1  0
 14  2  1  0
 15 12  1  0
M  END
> <chembl_id>
CHEMBL1594

> <chembl_pref_name>
PANTOTHENIC ACID

$$$$

     RDKit          2D

 16 16  0  0  0  0  0  0  0  0999 V2000
    3.5875   -6.1250    0.0000 Cl  0  0  0  0  0  0  0  0  0  0  0  0
    1.1292   -5.7542    0.0000 C   0  0  0  0  0  0  0  0  0  0  0  0
    1.7042   -6.1792    0.0000 N   0  0  0  0  0  0  0  0  0  0  0  0
   -1.0208   -5.0792    0.0000 C   0  0  0  0  0  0  0  0  0  0  0  0
    2.0625   -5.0875    0.0000 N   0  0  0  0  0  0  0  0  0  0  0  0
   -0.4458   -4.6667    0.0000 O   0  0  0  0  0  0  0  0  0  0  0  0
   -0.0875   -5.7542    0.0000 C   0  0  0  0  0  0  0  0  0  0  0  0
    0.5167   -6.1125    0.0000 C   0  0  0  0  0  0  0  0  0  0  0  0
    2.2792   -5.7542    0.0000 C   0  0  0  0  0  0  0  0  0  0  0  0
   -0.8000   -5.7542    0.0000 C   0  0  0  0  0  0  0  0  0  0  0  0
    1.3542   -5.0875    0.0000 C   0  0  0  0  0  0  0  0  0  0  0  0
    0.1292   -5.0792    0.0000 C   0  0  0  0  0  0  0  0  0  0  0  0
   -1.6958   -4.8667    0.0000 O   0  0  0  0  0  0  0  0  0  0  0  0
    1.7042   -6.8875    0.0000 C   0  0  0  0  0  0  0  0  0  0  0  0
   -1.4208   -6.1042    0.0000 C   0  0  0  0  0  0  0  0  0  0  0  0
   -2.0333   -5.7417    0.0000 C   0  0  0  0  0  0  0  0  0  0  0  0
  3  2  1  0
  4 10  1  0
  5 11  1  0
  6 12  1  0
  7  8  1  6
  8  2  1  0
  9  3  1  0
 10  7  1  0
 11  2  2  0
 12  7  1  0
 13  4  2  0
 14  3  1  0
 10 15  1  6
 16 15  1  0
  9  5  2  0
  4  6  1  0
M  END
> <chembl_id>
CHEMBL1200330

> <chembl_pref_name>
PILOCARPINE HYDROCHLORIDE

$$$$

     RDKit          2D

 18 19  0  0  0  0  0  0  0  0999 V2000
   -2.3183    0.2775    0.0000 O   0  0  0  0  0  0  0  0  0  0  0  0
   -2.8651   -0.3402    0.0000 C   0  0  0  0  0  0  0  0  0  0  0  0
   -2.4467   -1.0511    0.0000 C   0  0  0  0  0  0  0  0  0  0  0  0
   -1.6412   -0.8729    0.0000 C   0  0  0  0  0  0  0  0  0  0  0  0
   -1.5618   -0.0517    0.0000 C   0  0  0  0  0  0  0  0  0  0  0  0
   -0.1364    1.6042    0.0000 N   0  0  0  0  0  0  0  0  0  0  0  0
   -0.8508    1.1917    0.0000 C   0  0  0  0  0  0  0  0  0  0  0  0
   -0.8508    0.3667    0.0000 N   0  0  0  0  0  0  0  0  0  0  0  0
   -0.1364   -0.0458    0.0000 C   0  0  0  0  0  0  0  0  0  0  0  0
    0.5781    0.3667    0.0000 C   0  0  0  0  0  0  0  0  0  0  0  0
    0.5781    1.1917    0.0000 C   0  0  0  0  0  0  0  0  0  0  0  0
   -1.5653    1.6042    0.0000 O   0  0  0  0  0  0  0  0  0  0  0  0
    1.2926    1.6042    0.0000 O   0  0  0  0  0  0  0  0  0  0  0  0
   -3.6863   -0.2608    0.0000 C   0  0  0  0  0  0  0  0  0  0  0  0
   -4.1656   -0.9323    0.0000 O   0  0  0  0  0  0  0  0  0  0  0  0
   -2.7760   -1.8076    0.0000 O   0  0  0  0  0  0  0  0  0  0  0  0
   -1.4587   -1.6774    0.0000 F   0  0  0  0  0  0  0  0  0  0  0  0
   -0.8205   -0.9565    0.0000 F   0  0  0  0  0  0  0  0  0  0  0  0
  1  2  1  0
  2  3  1  0
  3  4  1  0
  4  5  1  0
  1  5  1  0
  6  7  1  0
  7  8  1  0
  8  9  1  0
  9 10  1  0
 10 11  1  0
  6 11  1  0
  7 12  2  0
 11 13  1  6
  5  8  1  1
  2 14  1  1
 14 15  1  0
  3 16  1  6
  4 17  1  0
  4 18  1  0
M  END
> <chembl_id>
CHEMBL3237547

> <chembl_pref_name>
CEDAZURIDINE

$$$$

     RDKit          2D

 17 17  0  0  0  0  0  0  0  0999 V2000
    4.4667   -6.3542    0.0000 C   0  0  0  0  0  0  0  0  0  0  0  0
    3.8417   -6.6917    0.0000 C   0  0  0  0  0  0  0  0  0  0  0  0
    4.4667   -5.6417    0.0000 O   0  0  0  0  0  0  0  0  0  0  0  0
    3.2292   -6.3542    0.0000 C   0  0  0  0  0  0  0  0  0  0  0  0
    3.8417   -7.4042    0.0000 C   0  0  0  0  0  0  0  0  0  0  0  0
    5.0667   -6.7042    0.0000 O   0  0  0  0  0  0  0  0  0  0  0  0
    2.6042   -7.4042    0.0000 C   0  0  0  0  0  0  0  0  0  0  0  0
    6.9125   -6.3542    0.0000 N   0  0  0  0  0  0  0  0  0  0  0  0
    1.9875   -7.7542    0.0000 N   0  0  0  0  0  0  0  0  0  0  0  0
    2.6125   -6.7042    0.0000 C   0  0  0  0  0  0  0  0  0  0  0  0
    3.2292   -7.7625    0.0000 C   0  0  0  0  0  0  0  0  0  0  0  0
    5.6792   -6.3500    0.0000 C   0  0  0  0  0  0  0  0  0  0  0  0
    6.2917   -6.7042    0.0000 C   0  0  0  0  0  0  0  0  0  0  0  0
    6.9250   -5.6500    0.0000 C   0  0  0  0  0  0  0  0  0  0  0  0
    7.5292   -6.7042    0.0000 C   0  0  0  0  0  0  0  0  0  0  0  0
    7.5375   -5.2917    0.0000 C   0  0  0  0  0  0  0  0  0  0  0  0
    8.1542   -6.3542    0.0000 C   0  0  0  0  0  0  0  0  0  0  0  0
  2  1  1  0
  3  1  2  0
  4  2  2  0
  5  2  1  0
  6  1  1  0
  7 11  1  0
  8 13  1  0
  9  7  1  0
 10  4  1  0
 11  5  2  0
 12  6  1  0
 13 12  1  0
 14  8  1  0
 15  8  1  0
 16 14  1  0
 17 15  1  0
  7 10  2  0
M  END
> <chembl_id>
CHEMBL569

> <chembl_pref_name>
PROCAINE

$$$$

     RDKit          2D

 23 26  0  0  1  0  0  0  0  0999 V2000
    5.9917   -4.2167    0.0000 C   0  0  0  0  0  0  0  0  0  0  0  0
    5.9750   -4.9375    0.0000 C   0  0  0  0  0  0  0  0  0  0  0  0
    5.3500   -5.2917    0.0000 C   0  0  0  0  0  0  0  0  0  0  0  0
    4.7417   -4.9375    0.0000 C   0  0  0  0  0  0  0  0  0  0  0  0
    4.1167   -5.2917    0.0000 C   0  0  0  0  0  0  0  0  0  0  0  0
    4.1042   -5.9875    0.0000 C   0  0  0  0  0  0  0  0  0  0  0  0
    5.3667   -3.8667    0.0000 C   0  0  0  0  0  0  0  0  0  0  0  0
    4.7417   -4.2125    0.0000 C   0  0  0  0  0  0  0  0  0  0  0  0
    5.3500   -6.0000    0.0000 C   0  0  0  0  0  0  0  0  0  0  0  0
    6.6542   -5.1667    0.0000 C   0  0  0  0  0  0  0  0  0  0  0  0
    3.5125   -4.9292    0.0000 C   0  0  0  0  0  0  0  0  0  0  0  0
    6.6625   -4.0167    0.0000 C   0  0  0  0  0  0  0  0  0  0  0  0
    4.7292   -6.3500    0.0000 C   0  0  0  0  0  0  0  0  0  0  0  0
    3.4917   -6.3375    0.0000 C   0  0  0  0  0  0  0  0  0  0  0  0
    7.0792   -4.5792    0.0000 C   0  0  0  0  0  0  0  0  0  0  0  0
    2.9000   -5.9792    0.0000 C   0  0  0  0  0  0  0  0  0  0  0  0
    2.9000   -5.2792    0.0000 C   0  0  0  0  0  0  0  0  0  0  0  0
    6.0625   -3.5167    0.0000 C   0  0  0  0  0  0  0  0  0  0  0  0
    6.9000   -3.3417    0.0000 O   0  0  0  0  0  0  0  0  0  0  0  0
    2.2792   -6.3125    0.0000 O   0  0  0  0  0  0  0  0  0  0  0  0
    5.9750   -5.6292    0.0000 H   0  0  0  0  0  0  0  0  0  0  0  0
    5.3292   -4.5417    0.0000 H   0  0  0  0  0  0  0  0  0  0  0  0
    4.7042   -5.6042    0.0000 H   0  0  0  0  0  0  0  0  0  0  0  0
  2  1  1  0
  3  2  1  0
  4  8  1  0
  5  4  1  0
  6  5  2  0
  7  1  1  0
  8  7  1  0
  9  3  1  0
 10  2  1  0
 11  5  1  0
 12  1  1  0
 13  9  1  0
 14  6  1  0
 15 12  1  0
 16 17  1  0
 17 11  2  0
  1 18  1  1
 12 19  1  1
 20 16  1  0
  2 21  1  6
  3 22  1  1
  4 23  1  6
 15 10  1  0
  4  3  1  0
  6 13  1  0
 16 14  2  0
M  END
> <chembl_id>
CHEMBL135

> <chembl_pref_name>
ESTRADIOL

$$$$

     RDKit          2D

 21 22  0  0  0  0  0  0  0  0999 V2000
    5.8917   -6.9042    0.0000 Cl  0  0  0  0  0  0  0  0  0  0  0  0
    3.5625   -5.6417    0.0000 C   0  0  0  0  0  0  0  0  0  0  0  0
    2.9125   -5.3292    0.0000 C   0  0  0  0  0  0  0  0  0  0  0  0
    4.2042   -5.3167    0.0000 C   0  0  0  0  0  0  0  0  0  0  0  0
    3.2042   -4.0667    0.0000 C   0  0  0  0  0  0  0  0  0  0  0  0
    3.9042   -4.0667    0.0000 C   0  0  0  0  0  0  0  0  0  0  0  0
    2.7625   -4.6292    0.0000 C   0  0  0  0  0  0  0  0  0  0  0  0
    4.3500   -4.6292    0.0000 C   0  0  0  0  0  0  0  0  0  0  0  0
    4.8250   -7.7375    0.0000 N   0  0  0  0  0  0  0  0  0  0  0  0
    3.5667   -6.3417    0.0000 C   0  0  0  0  0  0  0  0  0  0  0  0
    2.3917   -5.8042    0.0000 C   0  0  0  0  0  0  0  0  0  0  0  0
    4.7167   -5.7917    0.0000 C   0  0  0  0  0  0  0  0  0  0  0  0
    2.0667   -4.4167    0.0000 C   0  0  0  0  0  0  0  0  0  0  0  0
    5.0375   -4.4167    0.0000 C   0  0  0  0  0  0  0  0  0  0  0  0
    4.2000   -7.3917    0.0000 C   0  0  0  0  0  0  0  0  0  0  0  0
    4.8167   -8.4542    0.0000 C   0  0  0  0  0  0  0  0  0  0  0  0
    4.1917   -6.6792    0.0000 C   0  0  0  0  0  0  0  0  0  0  0  0
    1.7167   -5.6000    0.0000 C   0  0  0  0  0  0  0  0  0  0  0  0
    5.3875   -5.5917    0.0000 C   0  0  0  0  0  0  0  0  0  0  0  0
    5.5500   -4.9125    0.0000 C   0  0  0  0  0  0  0  0  0  0  0  0
    1.5542   -4.9042    0.0000 C   0  0  0  0  0  0  0  0  0  0  0  0
  3  2  1  0
  4  2  1  0
  5  7  1  0
  6  8  1  0
  7  3  2  0
  8  4  2  0
  9 15  1  0
 10  2  1  0
 11  3  1  0
 12  4  1  0
 13  7  1  0
 14  8  1  0
 15 17  1  0
 16  9  1  0
 17 10  1  0
 18 11  2  0
 19 12  2  0
 20 19  1  0
 21 18  1  0
  6  5  2  0
 20 14  2  0
 21 13  2  0
M  END
> <chembl_id>
CHEMBL1200332

> <chembl_pref_name>
PROTRIPTYLINE HYDROCHLORIDE

$$$$

     RDKit          2D

 18 17  0  0  0  0  0  0  0  0999 V2000
    9.3704   -4.4374    0.0000 Na  0  0  0  0  0 15  0  0  0  0  0  0
    7.5223   -5.4095    0.0000 N   0  0  0  0  0  0  0  0  0  0  0  0
    6.8052   -5.8041    0.0000 C   0  0  0  0  0  0  0  0  0  0  0  0
    6.1122   -4.5673    0.0000 C   0  0  0  0  0  0  0  0  0  0  0  0
    6.1073   -5.3854    0.0000 C   0  0  0  0  0  0  0  0  0  0  0  0
    6.8293   -4.1678    0.0000 N   0  0  0  0  0  0  0  0  0  0  0  0
    7.5367   -4.5818    0.0000 C   0  0  0  0  0  0  0  0  0  0  0  0
    6.8052   -6.6367    0.0000 O   0  0  0  0  0  0  0  0  0  0  0  0
    5.3999   -4.1582    0.0000 O   0  0  0  0  0  0  0  0  0  0  0  0
    8.2586   -4.1775    0.0000 O   0  0  0  0  0  0  0  0  0  0  0  0
    5.6598   -6.0785    0.0000 C   0  0  0  0  0  0  0  0  0  0  0  0
    4.6731   -5.3614    0.0000 C   0  0  0  0  0  0  0  0  0  0  0  0
    5.3950   -4.9619    0.0000 C   0  0  0  0  0  0  0  0  0  0  0  0
    3.9656   -4.9379    0.0000 C   0  0  0  0  0  0  0  0  0  0  0  0
    4.8319   -6.0400    0.0000 C   0  0  0  0  0  0  0  0  0  0  0  0
    6.0207   -6.8052    0.0000 C   0  0  0  0  0  0  0  0  0  0  0  0
    4.3844   -6.7330    0.0000 C   0  0  0  0  0  0  0  0  0  0  0  0
    3.5566   -6.6897    0.0000 C   0  0  0  0  0  0  0  0  0  0  0  0
  3  2  1  0
  4  6  1  0
  5  3  1  0
  6  7  1  0
  7  2  1  0
  8  3  2  0
  9  4  2  0
 10  7  2  0
 11  5  1  0
 12 13  1  0
 13  5  1  0
 14 12  2  0
 15 11  1  0
 16 11  1  0
 17 15  1  0
 18 17  1  0
  4  5  1  0
M  CHG  2   1   1   2  -1
M  END
> <chembl_id>
CHEMBL1200903

> <chembl_pref_name>
SECOBARBITAL SODIUM

$$$$

     RDKit          2D

 13 12  0  0  0  0  0  0  0  0999 V2000
    2.7173    1.5663    0.0000 O   0  0  0  0  0  0  0  0  0  0  0  0
    1.5749    1.5681    0.0000 O   0  0  0  0  0  0  0  0  0  0  0  0
    0.1433    0.0826    0.0000 O   0  0  0  0  0  0  0  0  0  0  0  0
    4.8591    0.3297    0.0000 O   0  0  0  0  0  0  0  0  0  0  0  0
    4.2876   -0.6596    0.0000 O   0  0  0  0  0  0  0  0  0  0  0  0
    1.4292    0.0000    0.0000 N   0  0  0  0  0  0  0  0  0  0  0  0
    2.1439    0.4123    0.0000 C   0  0  0  0  0  0  0  0  0  0  0  0
    2.1456    1.2373    0.0000 C   0  0  0  0  0  0  0  0  0  0  0  0
    2.8585    0.0000    0.0000 C   0  0  0  0  0  0  0  0  0  0  0  0
    0.7146    0.4123    0.0000 C   0  0  0  0  0  0  0  0  0  0  0  0
    3.5731    0.4123    0.0000 C   0  0  0  0  0  0  0  0  0  0  0  0
    4.2876    0.0000    0.0000 C   0  0  0  0  0  0  0  0  0  0  0  0
    0.7146    1.0719    0.0000 C   0  0  0  0  0  0  0  0  0  0  0  0
  1  8  2  0
  2  8  1  0
  3 10  2  0
  4 12  2  0
  5 12  1  0
  6  7  1  0
  6 10  1  0
  7  8  1  0
  7  9  1  0
  9 11  1  0
 10 13  1  0
 11 12  1  0
M  END
> <chembl_id>
CHEMBL2142890

> <chembl_pref_name>
ACEGLUMATE

$$$$

     RDKit          2D

 15 14  0  0  0  0  0  0  0  0999 V2000
    3.4179   -2.5634    0.0000 P   0  0  0  0  0  0  0  0  0  0  0  0
    3.4179   -1.7384    0.0000 O   0  0  0  0  0  0  0  0  0  0  0  0
    4.2429   -2.5634    0.0000 O   0  0  0  0  0  0  0  0  0  0  0  0
    2.5929   -2.5634    0.0000 O   0  0  0  0  0  0  0  0  0  0  0  0
    3.4179   -3.3884    0.0000 O   0  0  0  0  0  0  0  0  0  0  0  0
    0.0000    3.3000    0.0000 C   0  0  0  0  0  0  0  0  0  0  0  0
    0.0000    2.4750    0.0000 C   0  0  0  0  0  0  0  0  0  0  0  0
   -0.7145    2.0625    0.0000 C   0  0  0  0  0  0  0  0  0  0  0  0
    0.7145    2.0625    0.0000 N   0  0  0  0  0  0  0  0  0  0  0  0
    0.7145    1.2375    0.0000 C   0  0  0  0  0  0  0  0  0  0  0  0
    1.4289    0.8250    0.0000 N   0  0  0  0  0  0  0  0  0  0  0  0
    1.4289    0.0000    0.0000 C   0  0  0  0  0  0  0  0  0  0  0  0
    0.7145   -0.4125    0.0000 C   0  0  0  0  0  0  0  0  0  0  0  0
    0.0000    0.0000    0.0000 C   0  0  0  0  0  0  0  0  0  0  0  0
    0.0000    0.8250    0.0000 N   0  0  0  0  0  0  0  0  0  0  0  0
  1  2  1  0
  1  3  1  0
  1  4  1  0
  1  5  2  0
  6  7  1  0
  7  8  1  0
  7  9  1  0
  9 10  1  0
 10 11  2  0
 11 12  1  0
 12 13  2  0
 13 14  1  0
 14 15  2  0
 10 15  1  0
M  END
> <chembl_id>
CHEMBL1697751

> <chembl_pref_name>
ISAXONINE PHOSPHATE

$$$$

     RDKit          2D

 18 17  0  0  0  0  0  0  0  0999 V2000
    2.9538   -0.2062    0.0000 N   0  0  0  0  0  0  0  0  0  0  0  0
   10.8129    0.2062    0.0000 N   0  0  0  0  0  0  0  0  0  0  0  0
    3.6682    0.2063    0.0000 C   0  0  0  0  0  0  0  0  0  0  0  0
   10.0985   -0.2063    0.0000 C   0  0  0  0  0  0  0  0  0  0  0  0
    4.3827   -0.2062    0.0000 C   0  0  0  0  0  0  0  0  0  0  0  0
    9.3840    0.2062    0.0000 C   0  0  0  0  0  0  0  0  0  0  0  0
    2.2393   -0.6187    0.0000 C   0  0  0  0  0  0  0  0  0  0  0  0
    3.3663   -0.9207    0.0000 C   0  0  0  0  0  0  0  0  0  0  0  0
    2.5413    0.5082    0.0000 C   0  0  0  0  0  0  0  0  0  0  0  0
   11.5274    0.6187    0.0000 C   0  0  0  0  0  0  0  0  0  0  0  0
   11.2254   -0.5082    0.0000 C   0  0  0  0  0  0  0  0  0  0  0  0
   10.4004    0.9207    0.0000 C   0  0  0  0  0  0  0  0  0  0  0  0
    5.0972    0.2063    0.0000 C   0  0  0  0  0  0  0  0  0  0  0  0
    8.6695   -0.2063    0.0000 C   0  0  0  0  0  0  0  0  0  0  0  0
    5.8116   -0.2062    0.0000 C   0  0  0  0  0  0  0  0  0  0  0  0
    7.9551    0.2062    0.0000 C   0  0  0  0  0  0  0  0  0  0  0  0
    6.5261    0.2063    0.0000 C   0  0  0  0  0  0  0  0  0  0  0  0
    7.2406   -0.2063    0.0000 C   0  0  0  0  0  0  0  0  0  0  0  0
  1  3  1  0
  1  7  1  0
  1  8  1  0
  1  9  1  0
  2  4  1  0
  2 10  1  0
  2 11  1  0
  2 12  1  0
  3  5  1  0
  4  6  1  0
  5 13  1  0
  6 14  1  0
 13 15  1  0
 14 16  1  0
 15 17  1  0
 16 18  1  0
 17 18  1  0
M  CHG  2   1   1   2   1
M  END
> <chembl_id>
CHEMBL1190

> <chembl_pref_name>
DECAMETHONIUM

$$$$

     RDKit          2D

 12 12  0  0  1  0  0  0  0  0999 V2000
    4.3167   -5.1500    0.0000 N   0  0  0  0  0  0  0  0  0  0  0  0
    3.7292   -4.7292    0.0000 C   0  0  0  0  0  0  0  0  0  0  0  0
    4.9167   -4.8167    0.0000 C   0  0  0  0  0  0  0  0  0  0  0  0
    5.5292   -5.1792    0.0000 C   0  0  0  0  0  0  0  0  0  0  0  0
    3.7292   -4.0375    0.0000 O   0  0  0  0  0  0  0  0  0  0  0  0
    5.5292   -5.9042    0.0000 O   0  0  0  0  0  0  0  0  0  0  0  0
    6.1500   -4.8375    0.0000 N   0  0  0  0  0  0  0  0  0  0  0  0
    4.0667   -5.8292    0.0000 C   0  0  0  0  0  0  0  0  0  0  0  0
    3.1500   -5.1500    0.0000 C   0  0  0  0  0  0  0  0  0  0  0  0
    4.9167   -4.1125    0.0000 C   0  0  0  0  0  0  0  0  0  0  0  0
    3.3667   -5.8292    0.0000 C   0  0  0  0  0  0  0  0  0  0  0  0
    5.5292   -3.7500    0.0000 C   0  0  0  0  0  0  0  0  0  0  0  0
  2  1  1  0
  3  1  1  0
  4  3  1  0
  5  2  2  0
  6  4  2  0
  7  4  1  0
  8  1  1  0
  9  2  1  0
  3 10  1  1
 11  8  1  0
 12 10  1  0
 11  9  1  0
M  END
> <chembl_id>
CHEMBL1286

> <chembl_pref_name>
LEVETIRACETAM

$$$$

     RDKit          2D

  3  2  0  0  0  0  0  0  0  0999 V2000
   -0.7958    0.3958    0.0000 N   0  0  0  0  0  0  0  0  0  0  0  0
   -0.7958   -1.0375    0.0000 O   0  0  0  0  0  0  0  0  0  0  0  0
    0.4292    1.1375    0.0000 O   0  0  0  0  0  0  0  0  0  0  0  0
  2  1  1  0
  3  1  2  0
M  END
> <chembl_id>
CHEMBL1161681

> <chembl_pref_name>
NITROUS ACID

$$$$

     RDKit          2D

 20 22  0  0  0  0  0  0  0  0999 V2000
    3.1417   -4.7292    0.0000 C   0  0  0  0  0  0  0  0  0  0  0  0
    3.7875   -4.4250    0.0000 C   0  0  0  0  0  0  0  0  0  0  0  0
    2.5042   -4.4250    0.0000 C   0  0  0  0  0  0  0  0  0  0  0  0
    3.1417   -5.4292    0.0000 C   0  0  0  0  0  0  0  0  0  0  0  0
    3.9542   -3.7417    0.0000 C   0  0  0  0  0  0  0  0  0  0  0  0
    2.3542   -3.7292    0.0000 C   0  0  0  0  0  0  0  0  0  0  0  0
    3.5042   -3.1750    0.0000 C   0  0  0  0  0  0  0  0  0  0  0  0
    2.8000   -3.1750    0.0000 C   0  0  0  0  0  0  0  0  0  0  0  0
    4.3292   -6.8500    0.0000 N   0  0  0  0  0  0  0  0  0  0  0  0
    4.2917   -4.9292    0.0000 C   0  0  0  0  0  0  0  0  0  0  0  0
    1.9792   -4.8917    0.0000 C   0  0  0  0  0  0  0  0  0  0  0  0
    3.7250   -5.7875    0.0000 C   0  0  0  0  0  0  0  0  0  0  0  0
    4.6542   -3.5417    0.0000 C   0  0  0  0  0  0  0  0  0  0  0  0
    1.6792   -3.5125    0.0000 C   0  0  0  0  0  0  0  0  0  0  0  0
    3.7292   -6.4917    0.0000 C   0  0  0  0  0  0  0  0  0  0  0  0
    4.9292   -6.5042    0.0000 C   0  0  0  0  0  0  0  0  0  0  0  0
    4.9792   -4.7542    0.0000 C   0  0  0  0  0  0  0  0  0  0  0  0
    1.3042   -4.6875    0.0000 C   0  0  0  0  0  0  0  0  0  0  0  0
    1.1417   -3.9750    0.0000 C   0  0  0  0  0  0  0  0  0  0  0  0
    5.1625   -4.0542    0.0000 C   0  0  0  0  0  0  0  0  0  0  0  0
  2  1  1  0
  3  1  1  0
  4  1  2  0
  5  2  2  0
  6  3  2  0
  7  5  1  0
  8  6  1  0
  9 15  1  0
 10  2  1  0
 11  3  1  0
 12  4  1  0
 13  5  1  0
 14  6  1  0
 15 12  1  0
 16  9  1  0
 17 10  2  0
 18 11  2  0
 19 18  1  0
 20 17  1  0
  8  7  1  0
 19 14  2  0
 20 13  2  0
M  END
> <chembl_id>
CHEMBL445

> <chembl_pref_name>
NORTRIPTYLINE

$$$$

     RDKit          2D

 10 10  0  0  0  0  0  0  0  0999 V2000
   -0.7375   -0.8042    0.0000 N   0  0  0  0  0  0  0  0  0  0  0  0
   -1.3583   -1.1667    0.0000 N   0  0  0  0  0  0  0  0  0  0  0  0
    1.1167   -1.1667    0.0000 C   0  0  0  0  0  0  0  0  0  0  0  0
   -0.1208   -1.1625    0.0000 C   0  0  0  0  0  0  0  0  0  0  0  0
    0.5000   -0.8042    0.0000 C   0  0  0  0  0  0  0  0  0  0  0  0
    1.1167   -1.8792    0.0000 C   0  0  0  0  0  0  0  0  0  0  0  0
    1.7292   -0.8042    0.0000 C   0  0  0  0  0  0  0  0  0  0  0  0
    2.3500   -1.1625    0.0000 C   0  0  0  0  0  0  0  0  0  0  0  0
    1.7292   -2.2292    0.0000 C   0  0  0  0  0  0  0  0  0  0  0  0
    2.3417   -1.8792    0.0000 C   0  0  0  0  0  0  0  0  0  0  0  0
  2  1  1  0
  3  5  1  0
  4  1  1  0
  5  4  1  0
  6  3  2  0
  7  3  1  0
  8  7  2  0
  9  6  1  0
 10  9  2  0
 10  8  1  0
M  END
> <chembl_id>
CHEMBL1089

> <chembl_pref_name>
PHENELZINE

$$$$

     RDKit          2D

 14 13  0  0  0  0  0  0  0  0999 V2000
   -0.7958   -4.3042    0.0000 S   0  0  0  0  0  0  0  0  0  0  0  0
    3.4917   -4.6417    0.0000 S   0  0  0  0  0  0  0  0  0  0  0  0
   -0.4458   -3.6875    0.0000 O   0  0  0  0  0  0  0  0  0  0  0  0
   -1.1583   -3.6875    0.0000 O   0  0  0  0  0  0  0  0  0  0  0  0
    3.1292   -5.2542    0.0000 O   0  0  0  0  0  0  0  0  0  0  0  0
    3.8417   -5.2542    0.0000 O   0  0  0  0  0  0  0  0  0  0  0  0
    2.8792   -4.2917    0.0000 O   0  0  0  0  0  0  0  0  0  0  0  0
   -0.1833   -4.6542    0.0000 O   0  0  0  0  0  0  0  0  0  0  0  0
   -1.4083   -4.6542    0.0000 C   0  0  0  0  0  0  0  0  0  0  0  0
    4.1042   -4.2875    0.0000 C   0  0  0  0  0  0  0  0  0  0  0  0
    2.2667   -4.6417    0.0000 C   0  0  0  0  0  0  0  0  0  0  0  0
    0.4292   -4.3000    0.0000 C   0  0  0  0  0  0  0  0  0  0  0  0
    1.0417   -4.6500    0.0000 C   0  0  0  0  0  0  0  0  0  0  0  0
    1.6542   -4.2917    0.0000 C   0  0  0  0  0  0  0  0  0  0  0  0
  2  7  1  0
  3  1  2  0
  4  1  2  0
  5  2  2  0
  6  2  2  0
  7 11  1  0
  8  1  1  0
  9  1  1  0
 10  2  1  0
 11 14  1  0
 12  8  1  0
 13 12  1  0
 14 13  1  0
M  END
> <chembl_id>
CHEMBL820

> <chembl_pref_name>
BUSULFAN

$$$$

     RDKit          2D

 19 20  0  0  0  0  0  0  0  0999 V2000
   -7.0717    1.1312    0.0000 C   0  0  0  0  0  0  0  0  0  0  0  0
   -7.6237    1.7443    0.0000 N   0  0  0  0  0  0  0  0  0  0  0  0
   -7.2112    2.4588    0.0000 C   0  0  0  0  0  0  0  0  0  0  0  0
   -6.4043    2.2873    0.0000 C   0  0  0  0  0  0  0  0  0  0  0  0
   -6.3180    1.4668    0.0000 N   0  0  0  0  0  0  0  0  0  0  0  0
   -7.3266    0.3466    0.0000 N   0  0  0  0  0  0  0  0  0  0  0  0
   -5.6035    1.0543    0.0000 C   0  0  0  0  0  0  0  0  0  0  0  0
   -4.8891    1.4668    0.0000 C   0  0  0  0  0  0  0  0  0  0  0  0
   -4.1746    1.0543    0.0000 N   0  0  0  0  0  0  0  0  0  0  0  0
   -3.4601    1.4668    0.0000 C   0  0  0  0  0  0  0  0  0  0  0  0
   -4.8891    2.2918    0.0000 O   0  0  0  0  0  0  0  0  0  0  0  0
   -2.7457    1.0543    0.0000 C   0  0  0  0  0  0  0  0  0  0  0  0
   -2.0312    1.4668    0.0000 C   0  0  0  0  0  0  0  0  0  0  0  0
   -2.7457    0.2293    0.0000 C   0  0  0  0  0  0  0  0  0  0  0  0
   -2.0312   -0.1832    0.0000 C   0  0  0  0  0  0  0  0  0  0  0  0
   -1.3167    0.2293    0.0000 C   0  0  0  0  0  0  0  0  0  0  0  0
   -1.3167    1.0543    0.0000 C   0  0  0  0  0  0  0  0  0  0  0  0
   -6.7746   -0.2665    0.0000 O   0  0  0  0  0  0  0  0  0  0  0  0
   -8.1336    0.1751    0.0000 O   0  0  0  0  0  0  0  0  0  0  0  0
  1  2  2  0
  2  3  1  0
  4  5  1  0
  1  5  1  0
  3  4  2  0
  1  6  1  0
  5  7  1  0
  7  8  1  0
  8  9  1  0
  9 10  1  0
  8 11  2  0
 10 12  1  0
 14 15  1  0
 15 16  2  0
 16 17  1  0
 13 17  2  0
 13 12  1  0
 12 14  2  0
  6 18  1  0
  6 19  2  0
M  CHG  2   6   1  18  -1
M  END
> <chembl_id>
CHEMBL110

> <chembl_pref_name>
BENZNIDAZOLE

$$$$

     RDKit          2D

 19 21  0  0  0  0  0  0  0  0999 V2000
    0.6042    0.2458    0.0000 N   0  0  0  0  0  0  0  0  0  0  0  0
   -0.6333   -0.4792    0.0000 C   0  0  0  0  0  0  0  0  0  0  0  0
    0.6042    1.6583    0.0000 C   0  0  0  0  0  0  0  0  0  0  0  0
   -0.6333    2.3958    0.0000 N   0  0  0  0  0  0  0  0  0  0  0  0
   -1.8708    0.2250    0.0000 C   0  0  0  0  0  0  0  0  0  0  0  0
   -1.8708    1.6750    0.0000 C   0  0  0  0  0  0  0  0  0  0  0  0
    1.8417   -0.4625    0.0000 C   0  0  0  0  0  0  0  0  0  0  0  0
   -0.6333   -1.9125    0.0000 O   0  0  0  0  0  0  0  0  0  0  0  0
    3.0875    0.2458    0.0000 C   0  0  0  0  0  0  0  0  0  0  0  0
    1.8792    2.3708    0.0000 C   0  0  0  0  0  0  0  0  0  0  0  0
   -3.0958   -0.4792    0.0000 C   0  0  0  0  0  0  0  0  0  0  0  0
    1.8417   -1.8917    0.0000 C   0  0  0  0  0  0  0  0  0  0  0  0
   -3.0958    2.3958    0.0000 C   0  0  0  0  0  0  0  0  0  0  0  0
    3.0875    1.6958    0.0000 C   0  0  0  0  0  0  0  0  0  0  0  0
    4.3292   -0.4625    0.0000 C   0  0  0  0  0  0  0  0  0  0  0  0
   -4.3333    0.2458    0.0000 C   0  0  0  0  0  0  0  0  0  0  0  0
    3.0667   -2.6042    0.0000 C   0  0  0  0  0  0  0  0  0  0  0  0
   -4.3333    1.6583    0.0000 C   0  0  0  0  0  0  0  0  0  0  0  0
    4.3292   -1.8917    0.0000 C   0  0  0  0  0  0  0  0  0  0  0  0
  2  1  1  0
  3  1  1  0
  4  3  2  0
  5  2  1  0
  6  4  1  0
  7  1  1  0
  8  2  2  0
  9  7  1  0
 10  3  1  0
 11  5  1  0
 12  7  2  0
 13  6  1  0
 14  9  1  0
 15  9  2  0
 16 11  2  0
 17 12  1  0
 18 13  2  0
 19 17  2  0
  5  6  2  0
 15 19  1  0
 16 18  1  0
M  END
> <chembl_id>
CHEMBL282052

> <chembl_pref_name>
METHAQUALONE

$$$$

     RDKit          2D

 15 15  0  0  0  0  0  0  0  0999 V2000
   -1.2850    0.4887    0.0000 C   0  0  0  0  0  0  0  0  0  0  0  0
   -1.9297    1.0112    0.0000 C   0  0  0  0  0  0  0  0  0  0  0  0
   -1.4241   -0.3160    0.0000 C   0  0  0  0  0  0  0  0  0  0  0  0
   -0.5013    0.7794    0.0000 C   0  0  0  0  0  0  0  0  0  0  0  0
   -2.8397   -0.0758    0.0000 C   0  0  0  0  0  0  0  0  0  0  0  0
   -2.2077   -0.5983    0.0000 C   0  0  0  0  0  0  0  0  0  0  0  0
   -2.7007    0.7331    0.0000 C   0  0  0  0  0  0  0  0  0  0  0  0
    0.8890    0.5393    0.0000 N   0  0  0  0  0  0  0  0  0  0  0  0
   -0.3666    1.5926    0.0000 O   0  0  0  0  0  0  0  0  0  0  0  0
   -3.6234   -0.3582    0.0000 O   0  0  0  0  0  0  0  0  0  0  0  0
    0.1180    0.2486    0.0000 C   0  0  0  0  0  0  0  0  0  0  0  0
    1.5294    0.0210    0.0000 C   0  0  0  0  0  0  0  0  0  0  0  0
    2.3047    0.2991    0.0000 C   0  0  0  0  0  0  0  0  0  0  0  0
    2.9493   -0.2191    0.0000 C   0  0  0  0  0  0  0  0  0  0  0  0
    3.7204    0.0506    0.0000 C   0  0  0  0  0  0  0  0  0  0  0  0
  2  1  1  0
  3  1  2  0
  4  1  1  0
  5  6  2  0
  6  3  1  0
  7  2  2  0
  8 11  1  0
  9  4  1  0
 10  5  1  0
 11  4  1  0
 12  8  1  0
 13 12  1  0
 14 13  1  0
 15 14  1  0
  7  5  1  0
M  END
> <chembl_id>
CHEMBL1987462

> <chembl_pref_name>
BAMETHAN

$$$$

     RDKit          2D

 15 16  0  0  0  0  0  0  0  0999 V2000
    1.2990   -0.7500    0.0000 C   0  0  0  0  0  0  0  0  0  0  0  0
    1.2990    0.7500    0.0000 N   0  0  0  0  0  0  0  0  0  0  0  0
    0.0000    1.5000    0.0000 C   0  0  0  0  0  0  0  0  0  0  0  0
   -1.2990    0.7500    0.0000 N   0  0  0  0  0  0  0  0  0  0  0  0
    0.0000   -1.5000    0.0000 C   0  0  0  0  0  0  0  0  0  0  0  0
   -1.2990   -0.7500    0.0000 C   0  0  0  0  0  0  0  0  0  0  0  0
    0.0000    2.7000    0.0000 O   0  0  0  0  0  0  0  0  0  0  0  0
    2.5987    1.5004    0.0000 C   0  0  0  0  0  0  0  0  0  0  0  0
    3.9511    0.8815    0.0000 O   0  0  0  0  0  0  0  0  0  0  0  0
    4.9530    1.9978    0.0000 C   0  0  0  0  0  0  0  0  0  0  0  0
    4.2010    3.2957    0.0000 C   0  0  0  0  0  0  0  0  0  0  0  0
    2.7342    2.9815    0.0000 C   0  0  0  0  0  0  0  0  0  0  0  0
    6.4430    1.8405    0.0000 C   0  0  0  0  0  0  0  0  0  0  0  0
    6.9313    0.7443    0.0000 O   0  0  0  0  0  0  0  0  0  0  0  0
   -2.3383   -1.3500    0.0000 N   0  0  0  0  0  0  0  0  0  0  0  0
  8  2  1  1
  8  9  1  0
  3  4  1  0
  4  6  2  0
  5  6  1  0
  1  2  1  0
  9 10  1  0
 10 11  1  0
 11 12  1  0
 12  8  1  0
  5  1  2  0
 10 13  1  1
  2  3  1  0
 13 14  1  0
  3  7  2  0
  6 15  1  0
M  END
> <chembl_id>
CHEMBL853

> <chembl_pref_name>
ZALCITABINE

$$$$

     RDKit          2D

 11 10  0  0  1  0  0  0  0  0999 V2000
    1.5458   -2.9042    0.0000 C   0  0  0  0  0  0  0  0  0  0  0  0
    2.1583   -2.5542    0.0000 C   0  0  0  0  0  0  0  0  0  0  0  0
    4.0000   -2.9042    0.0000 N   0  0  0  0  0  0  0  0  0  0  0  0
    0.9333   -2.5542    0.0000 O   0  0  0  0  0  0  0  0  0  0  0  0
    1.5458   -3.6167    0.0000 O   0  0  0  0  0  0  0  0  0  0  0  0
    2.7750   -2.9042    0.0000 C   0  0  0  0  0  0  0  0  0  0  0  0
    3.3875   -2.5542    0.0000 C   0  0  0  0  0  0  0  0  0  0  0  0
    2.7750   -3.6167    0.0000 O   0  0  0  0  0  0  0  0  0  0  0  0
    3.6417   -3.5167    0.0000 C   0  0  0  0  0  0  0  0  0  0  0  0
    4.6125   -2.5542    0.0000 C   0  0  0  0  0  0  0  0  0  0  0  0
    4.3500   -3.5167    0.0000 C   0  0  0  0  0  0  0  0  0  0  0  0
  2  1  1  0
  3  7  1  0
  4  1  1  0
  5  1  2  0
  6  2  1  0
  7  6  1  0
  6  8  1  6
  9  3  1  0
 10  3  1  0
 11  3  1  0
M  CHG  2   3   1   4  -1
M  END
> <chembl_id>
CHEMBL1149

> <chembl_pref_name>
LEVOCARNITINE

$$$$

     RDKit          2D

 21 23  0  0  1  0  0  0  0  0999 V2000
   -1.5458   -0.6792    0.0000 C   0  0  0  0  0  0  0  0  0  0  0  0
    2.7167    0.2458    0.0000 N   0  0  0  0  0  0  0  0  0  0  0  0
    2.0292   -0.6792    0.0000 C   0  0  0  0  0  0  0  0  0  0  0  0
    2.7167   -0.8917    0.0000 C   0  0  0  0  0  0  0  0  0  0  0  0
   -0.9708   -1.0875    0.0000 N   0  0  0  0  0  0  0  0  0  0  0  0
    3.1167   -0.3167    0.0000 C   0  0  0  0  0  0  0  0  0  0  0  0
    2.0292    0.0333    0.0000 C   0  0  0  0  0  0  0  0  0  0  0  0
   -1.3333   -0.0042    0.0000 O   0  0  0  0  0  0  0  0  0  0  0  0
    1.4167   -1.0417    0.0000 C   0  0  0  0  0  0  0  0  0  0  0  0
   -2.1583   -1.0417    0.0000 O   0  0  0  0  0  0  0  0  0  0  0  0
   -0.4333   -0.6792    0.0000 C   0  0  0  0  0  0  0  0  0  0  0  0
    0.8042   -0.6792    0.0000 C   0  0  0  0  0  0  0  0  0  0  0  0
    2.7167   -1.6250    0.0000 C   0  0  0  0  0  0  0  0  0  0  0  0
    1.4167    0.3958    0.0000 C   0  0  0  0  0  0  0  0  0  0  0  0
   -0.6208   -0.0042    0.0000 C   0  0  0  0  0  0  0  0  0  0  0  0
    0.1917   -1.0417    0.0000 C   0  0  0  0  0  0  0  0  0  0  0  0
    3.9417   -1.6250    0.0000 N   0  0  0  0  0  0  0  0  0  0  0  0
    3.3292   -1.9875    0.0000 C   0  0  0  0  0  0  0  0  0  0  0  0
    0.8042    0.0333    0.0000 C   0  0  0  0  0  0  0  0  0  0  0  0
    4.5667   -1.9875    0.0000 C   0  0  0  0  0  0  0  0  0  0  0  0
    3.9417   -0.9042    0.0000 C   0  0  0  0  0  0  0  0  0  0  0  0
  2  7  1  0
  3  9  1  0
  4  3  1  0
  5  1  1  0
  6  4  2  0
  7 14  1  0
  8  1  1  0
  9 12  2  0
 10  1  2  0
 11  5  1  0
 12 16  1  0
 13  4  1  0
 14 19  2  0
 15  8  1  0
 11 16  1  6
 17 18  1  0
 18 13  1  0
 19 12  1  0
 20 17  1  0
 21 17  1  0
 11 15  1  0
  3  7  2  0
  2  6  1  0
M  END
> <chembl_id>
CHEMBL1185

> <chembl_pref_name>
ZOLMITRIPTAN

$$$$

     RDKit          2D

 20 22  0  0  0  0  0  0  0  0999 V2000
    0.7146   -0.5153    0.0000 C   0  0  0  0  0  0  0  0  0  0  0  0
    0.0000    0.7111    0.0000 N   0  0  0  0  0  0  0  0  0  0  0  0
    0.0000   -0.9276    0.0000 S   0  0  0  0  0  0  0  0  0  0  0  0
    1.4258   -0.9276    0.0000 C   0  0  0  0  0  0  0  0  0  0  0  0
    0.7146    0.2954    0.0000 C   0  0  0  0  0  0  0  0  0  0  0  0
    2.1437   -0.5153    0.0000 C   0  0  0  0  0  0  0  0  0  0  0  0
   -0.7111   -0.5153    0.0000 C   0  0  0  0  0  0  0  0  0  0  0  0
    2.8584   -0.9276    0.0000 N   0  0  0  0  0  0  0  0  0  0  0  0
   -0.7111    0.2954    0.0000 C   0  0  0  0  0  0  0  0  0  0  0  0
   -1.4291   -0.9276    0.0000 C   0  0  0  0  0  0  0  0  0  0  0  0
    1.4258    0.7111    0.0000 C   0  0  0  0  0  0  0  0  0  0  0  0
    2.1437    0.2954    0.0000 C   0  0  0  0  0  0  0  0  0  0  0  0
   -2.1437   -0.5153    0.0000 C   0  0  0  0  0  0  0  0  0  0  0  0
   -2.8617   -0.9276    0.0000 N   0  0  0  0  0  0  0  0  0  0  0  0
   -1.4291    0.7111    0.0000 C   0  0  0  0  0  0  0  0  0  0  0  0
   -2.1437    0.2954    0.0000 C   0  0  0  0  0  0  0  0  0  0  0  0
    2.8584   -1.7556    0.0000 C   0  0  0  0  0  0  0  0  0  0  0  0
    3.5798   -0.5153    0.0000 C   0  0  0  0  0  0  0  0  0  0  0  0
   -3.5832   -0.5153    0.0000 C   0  0  0  0  0  0  0  0  0  0  0  0
   -2.8617   -1.7556    0.0000 C   0  0  0  0  0  0  0  0  0  0  0  0
  2  5  2  0
  3  1  1  0
  4  1  2  0
  5  1  1  0
  6  4  1  0
  7  3  1  0
  8  6  2  0
  9  2  1  0
 10  7  1  0
 11  5  1  0
 12 11  2  0
 13 10  2  0
 14 13  1  0
 15  9  1  0
 16 15  2  0
 17  8  1  0
 18  8  1  0
 19 14  1  0
 20 14  1  0
  6 12  1  0
  7  9  2  0
 13 16  1  0
M  CHG  1   8   1
M  END
> <chembl_id>
CHEMBL191083

> <chembl_pref_name>
METHYLENE BLUE

$$$$

     RDKit          2D

 11 11  0  0  0  0  0  0  0  0999 V2000
    6.2292   -5.8667    0.0000 C   0  0  0  0  0  0  0  0  0  0  0  0
    6.2417   -6.5792    0.0000 C   0  0  0  0  0  0  0  0  0  0  0  0
    5.6167   -5.5292    0.0000 C   0  0  0  0  0  0  0  0  0  0  0  0
    5.6292   -6.9417    0.0000 C   0  0  0  0  0  0  0  0  0  0  0  0
    5.0125   -5.8875    0.0000 C   0  0  0  0  0  0  0  0  0  0  0  0
    6.8500   -5.5125    0.0000 O   0  0  0  0  0  0  0  0  0  0  0  0
    5.0125   -6.5917    0.0000 C   0  0  0  0  0  0  0  0  0  0  0  0
    6.8667   -6.9292    0.0000 O   0  0  0  0  0  0  0  0  0  0  0  0
    3.1625   -5.5500    0.0000 N   0  0  0  0  0  0  0  0  0  0  0  0
    3.7792   -5.9000    0.0000 C   0  0  0  0  0  0  0  0  0  0  0  0
    4.3875   -5.5292    0.0000 C   0  0  0  0  0  0  0  0  0  0  0  0
  2  1  1  0
  3  1  2  0
  4  2  2  0
  5  3  1  0
  6  1  1  0
  7  5  2  0
  8  2  1  0
  9 10  1  0
 10 11  1  0
 11  5  1  0
  7  4  1  0
M  END
> <chembl_id>
CHEMBL59

> <chembl_pref_name>
DOPAMINE

$$$$

     RDKit          2D

  1  0  0  0  0  0  0  0  0  0999 V2000
    0.0375    0.0500    0.0000 N   0  0  0  0  0  0  0  0  0  0  0  0
M  END
> <chembl_id>
CHEMBL1160819

> <chembl_pref_name>
AMMONIA SOLUTION, STRONG

$$$$

     RDKit          2D

  7  4  0  0  0  0  0  0  0  0999 V2000
   -1.6458   -2.0792    0.0000 K   0  0  0  0  0 15  0  0  0  0  0  0
    1.5500    0.6958    0.0000 S   0  0  0  0  0  0  0  0  0  0  0  0
    0.0667    0.6458    0.0000 O   0  0  0  0  0  0  0  0  0  0  0  0
    2.8542    0.6458    0.0000 O   0  0  0  0  0  0  0  0  0  0  0  0
    1.5875    2.1750    0.0000 O   0  0  0  0  0  0  0  0  0  0  0  0
    1.6792   -0.7625    0.0000 O   0  0  0  0  0  0  0  0  0  0  0  0
   -3.0625    1.9708    0.0000 K   0  0  0  0  0 15  0  0  0  0  0  0
  3  2  1  0
  4  2  1  0
  5  2  2  0
  6  2  2  0
M  CHG  4   1   1   3  -1   4  -1   7   1
M  END
> <chembl_id>
CHEMBL2021424

> <chembl_pref_name>
POTASSIUM SULFATE

$$$$

     RDKit          2D

 15 15  0  0  0  0  0  0  0  0999 V2000
   10.4466    0.3563    0.0000 C   0  0  0  0  0  0  0  0  0  0  0  0
    9.7332    0.7786    0.0000 N   0  0  0  0  0  0  0  0  0  0  0  0
    9.7332   -0.8909    0.0000 N   0  0  0  0  0  0  0  0  0  0  0  0
   11.1551    0.7640    0.0000 C   0  0  0  0  0  0  0  0  0  0  0  0
   10.4466   -0.4687    0.0000 C   0  0  0  0  0  0  0  0  0  0  0  0
   11.8734    0.3563    0.0000 N   0  0  0  0  0  0  0  0  0  0  0  0
    9.0149    0.3563    0.0000 C   0  0  0  0  0  0  0  0  0  0  0  0
    9.0149   -0.4687    0.0000 C   0  0  0  0  0  0  0  0  0  0  0  0
   12.5820    0.7640    0.0000 C   0  0  0  0  0  0  0  0  0  0  0  0
   12.5820    1.5939    0.0000 N   0  0  0  0  0  0  0  0  0  0  0  0
   11.1551    1.5939    0.0000 O   0  0  0  0  0  0  0  0  0  0  0  0
   11.1551   -0.8812    0.0000 N   0  0  0  0  0  0  0  0  0  0  0  0
    8.2918   -0.8667    0.0000 N   0  0  0  0  0  0  0  0  0  0  0  0
   13.2954    0.3563    0.0000 N   0  0  0  0  0  0  0  0  0  0  0  0
    8.2918    0.7543    0.0000 Cl  0  0  0  0  0  0  0  0  0  0  0  0
  2  1  1  0
  3  5  1  0
  4  1  1  0
  5  1  2  0
  6  4  1  0
  7  2  2  0
  8  3  2  0
  9  6  1  0
 10  9  2  0
 11  4  2  0
 12  5  1  0
 13  8  1  0
 14  9  1  0
 15  7  1  0
  7  8  1  0
M  END
> <chembl_id>
CHEMBL945

> <chembl_pref_name>
AMILORIDE

$$$$

     RDKit          2D

 17 19  0  0  0  0  0  0  0  0999 V2000
    3.6667   -5.9042    0.0000 N   0  0  0  0  0  0  0  0  0  0  0  0
    4.9042   -5.9042    0.0000 C   0  0  0  0  0  0  0  0  0  0  0  0
    4.2792   -5.5292    0.0000 C   0  0  0  0  0  0  0  0  0  0  0  0
    3.6667   -6.6167    0.0000 C   0  0  0  0  0  0  0  0  0  0  0  0
    4.2792   -6.9667    0.0000 N   0  0  0  0  0  0  0  0  0  0  0  0
    5.4917   -5.5292    0.0000 C   0  0  0  0  0  0  0  0  0  0  0  0
    4.9042   -6.6167    0.0000 C   0  0  0  0  0  0  0  0  0  0  0  0
    6.0625   -5.9875    0.0000 N   0  0  0  0  0  0  0  0  0  0  0  0
    6.6417   -5.5667    0.0000 N   0  0  0  0  0  0  0  0  0  0  0  0
    6.4292   -4.8875    0.0000 N   0  0  0  0  0  0  0  0  0  0  0  0
    5.7292   -4.8875    0.0000 N   0  0  0  0  0  0  0  0  0  0  0  0
    3.0500   -6.9667    0.0000 C   0  0  0  0  0  0  0  0  0  0  0  0
    3.0500   -5.5292    0.0000 C   0  0  0  0  0  0  0  0  0  0  0  0
    4.2792   -4.8500    0.0000 O   0  0  0  0  0  0  0  0  0  0  0  0
    2.4417   -5.9042    0.0000 C   0  0  0  0  0  0  0  0  0  0  0  0
    2.4417   -6.6167    0.0000 C   0  0  0  0  0  0  0  0  0  0  0  0
    3.0500   -7.6792    0.0000 C   0  0  0  0  0  0  0  0  0  0  0  0
  2  3  1  0
  3  1  1  0
  4  1  1  0
  5  4  2  0
  6  2  1  0
  7  5  1  0
  8  6  1  0
  9  8  1  0
 10 11  1  0
 11  6  2  0
 12  4  1  0
 13  1  1  0
 14  3  2  0
 15 13  2  0
 16 15  1  0
 17 12  1  0
 16 12  2  0
  7  2  2  0
  9 10  2  0
M  END
> <chembl_id>
CHEMBL1201198

> <chembl_pref_name>
PEMIROLAST

$$$$

     RDKit          2D

 22 24  0  0  0  0  0  0  0  0999 V2000
   -1.8374    0.6226    0.0000 N   0  0  0  0  0  0  0  0  0  0  0  0
   -2.2088    1.6738    0.0000 N   0  0  0  0  0  0  0  0  0  0  0  0
   -1.2903    0.9832    0.0000 N   0  0  0  0  0  0  0  0  0  0  0  0
   -2.4237    0.9745    0.0000 C   0  0  0  0  0  0  0  0  0  0  0  0
    1.2421   -1.9383    0.0000 N   0  0  0  0  0  0  0  0  0  0  0  0
   -4.8873   -1.9069    0.0000 N   0  0  0  0  0  0  0  0  0  0  0  0
   -1.5380    1.6715    0.0000 C   0  0  0  0  0  0  0  0  0  0  0  0
   -1.8399   -0.1232    0.0000 C   0  0  0  0  0  0  0  0  0  0  0  0
   -4.2822   -1.5442    0.0000 C   0  0  0  0  0  0  0  0  0  0  0  0
    0.6302   -1.5608    0.0000 C   0  0  0  0  0  0  0  0  0  0  0  0
   -2.4328   -0.4629    0.0000 C   0  0  0  0  0  0  0  0  0  0  0  0
   -1.2286   -0.4670    0.0000 C   0  0  0  0  0  0  0  0  0  0  0  0
   -1.2310   -1.1920    0.0000 C   0  0  0  0  0  0  0  0  0  0  0  0
   -0.6023   -0.1066    0.0000 C   0  0  0  0  0  0  0  0  0  0  0  0
   -3.0566   -0.1233    0.0000 C   0  0  0  0  0  0  0  0  0  0  0  0
   -2.4352   -1.1712    0.0000 C   0  0  0  0  0  0  0  0  0  0  0  0
    0.0190   -1.1838    0.0000 C   0  0  0  0  0  0  0  0  0  0  0  0
   -3.6602   -1.1713    0.0000 C   0  0  0  0  0  0  0  0  0  0  0  0
   -0.6073   -1.5566    0.0000 C   0  0  0  0  0  0  0  0  0  0  0  0
    0.0214   -0.4713    0.0000 C   0  0  0  0  0  0  0  0  0  0  0  0
   -3.6661   -0.4670    0.0000 C   0  0  0  0  0  0  0  0  0  0  0  0
   -3.0572   -1.5316    0.0000 C   0  0  0  0  0  0  0  0  0  0  0  0
  2  4  2  0
  3  1  1  0
  4  1  1  0
  5 10  3  0
  6  9  3  0
  7  3  2  0
  8  1  1  0
  9 18  1  0
 10 17  1  0
 11  8  1  0
 12  8  1  0
 13 12  1  0
 14 12  2  0
 15 11  1  0
 16 11  2  0
 17 20  2  0
 18 22  2  0
 19 13  2  0
 20 14  1  0
 21 15  2  0
 22 16  1  0
  7  2  1  0
 17 19  1  0
 18 21  1  0
M  END
> <chembl_id>
CHEMBL1444

> <chembl_pref_name>
LETROZOLE

$$$$

     RDKit          2D

 19 19  0  0  0  0  0  0  0  0999 V2000
    6.2000   -4.4792    0.0000 C   0  0  0  0  0  0  0  0  0  0  0  0
    6.8167   -5.5250    0.0000 N   0  0  0  0  0  0  0  0  0  0  0  0
    6.8167   -4.1292    0.0000 C   0  0  0  0  0  0  0  0  0  0  0  0
    6.2000   -5.1792    0.0000 C   0  0  0  0  0  0  0  0  0  0  0  0
    3.7500   -4.4792    0.0000 C   0  0  0  0  0  0  0  0  0  0  0  0
    4.3542   -4.1292    0.0000 N   0  0  0  0  0  0  0  0  0  0  0  0
    5.5917   -4.1125    0.0000 C   0  0  0  0  0  0  0  0  0  0  0  0
    5.5917   -5.5417    0.0000 C   0  0  0  0  0  0  0  0  0  0  0  0
    7.4375   -5.1625    0.0000 O   0  0  0  0  0  0  0  0  0  0  0  0
    6.8167   -6.2375    0.0000 O   0  0  0  0  0  0  0  0  0  0  0  0
    4.9750   -4.4792    0.0000 C   0  0  0  0  0  0  0  0  0  0  0  0
    3.7500   -5.1792    0.0000 O   0  0  0  0  0  0  0  0  0  0  0  0
    7.1917   -3.5167    0.0000 F   0  0  0  0  0  0  0  0  0  0  0  0
    7.4375   -4.4792    0.0000 F   0  0  0  0  0  0  0  0  0  0  0  0
    6.4542   -3.5167    0.0000 F   0  0  0  0  0  0  0  0  0  0  0  0
    3.1292   -4.1292    0.0000 C   0  0  0  0  0  0  0  0  0  0  0  0
    4.9750   -5.1792    0.0000 C   0  0  0  0  0  0  0  0  0  0  0  0
    2.5167   -4.4792    0.0000 C   0  0  0  0  0  0  0  0  0  0  0  0
    3.1250   -3.4167    0.0000 C   0  0  0  0  0  0  0  0  0  0  0  0
  2  4  1  0
  3  1  1  0
  4  1  1  0
  5  6  1  0
  6 11  1  0
  7  1  2  0
  8  4  2  0
  9  2  1  0
 10  2  2  0
 11  7  1  0
 12  5  2  0
 13  3  1  0
 14  3  1  0
 15  3  1  0
 16  5  1  0
 17 11  2  0
 18 16  1  0
 19 16  1  0
 17  8  1  0
M  CHG  2   2   1   9  -1
M  END
> <chembl_id>
CHEMBL806

> <chembl_pref_name>
FLUTAMIDE

$$$$

     RDKit          2D

 13 13  0  0  0  0  0  0  0  0999 V2000
    2.6667   -3.2917    0.0000 N   0  0  0  0  0  0  0  0  0  0  0  0
    3.2917   -2.9375    0.0000 C   0  0  0  0  0  0  0  0  0  0  0  0
    2.0542   -2.9250    0.0000 C   0  0  0  0  0  0  0  0  0  0  0  0
    3.2917   -2.2167    0.0000 O   0  0  0  0  0  0  0  0  0  0  0  0
    2.0542   -2.2250    0.0000 O   0  0  0  0  0  0  0  0  0  0  0  0
    1.4375   -3.2792    0.0000 C   0  0  0  0  0  0  0  0  0  0  0  0
    3.8917   -3.2917    0.0000 N   0  0  0  0  0  0  0  0  0  0  0  0
    0.8250   -2.9167    0.0000 C   0  0  0  0  0  0  0  0  0  0  0  0
    0.2000   -3.2667    0.0000 C   0  0  0  0  0  0  0  0  0  0  0  0
    0.8292   -2.2125    0.0000 C   0  0  0  0  0  0  0  0  0  0  0  0
    0.2125   -1.8542    0.0000 C   0  0  0  0  0  0  0  0  0  0  0  0
   -0.4208   -2.9125    0.0000 C   0  0  0  0  0  0  0  0  0  0  0  0
   -0.4083   -2.2000    0.0000 C   0  0  0  0  0  0  0  0  0  0  0  0
  2  1  1  0
  3  1  1  0
  4  2  2  0
  5  3  2  0
  6  3  1  0
  7  2  1  0
  8  6  1  0
  9  8  2  0
 10  8  1  0
 11 10  2  0
 12  9  1  0
 13 11  1  0
 13 12  2  0
M  END
> <chembl_id>
CHEMBL918

> <chembl_pref_name>
PHENACEMIDE

$$$$

     RDKit          2D

 20 21  0  0  0  0  0  0  0  0999 V2000
    4.7750   -5.0250    0.0000 C   0  0  0  0  0  0  0  0  0  0  0  0
    5.3667   -4.6625    0.0000 C   0  0  0  0  0  0  0  0  0  0  0  0
    4.1500   -4.6667    0.0000 C   0  0  0  0  0  0  0  0  0  0  0  0
    5.9917   -5.0125    0.0000 C   0  0  0  0  0  0  0  0  0  0  0  0
    3.5417   -5.0375    0.0000 C   0  0  0  0  0  0  0  0  0  0  0  0
    4.1375   -3.9667    0.0000 C   0  0  0  0  0  0  0  0  0  0  0  0
    6.0042   -5.7125    0.0000 C   0  0  0  0  0  0  0  0  0  0  0  0
    6.6042   -4.6500    0.0000 C   0  0  0  0  0  0  0  0  0  0  0  0
    2.9042   -3.9792    0.0000 C   0  0  0  0  0  0  0  0  0  0  0  0
    7.2417   -5.7042    0.0000 C   0  0  0  0  0  0  0  0  0  0  0  0
    6.6292   -6.0667    0.0000 C   0  0  0  0  0  0  0  0  0  0  0  0
    7.2292   -4.9917    0.0000 C   0  0  0  0  0  0  0  0  0  0  0  0
    2.9167   -4.6875    0.0000 C   0  0  0  0  0  0  0  0  0  0  0  0
    3.5042   -3.6167    0.0000 C   0  0  0  0  0  0  0  0  0  0  0  0
    4.7667   -5.7292    0.0000 C   0  0  0  0  0  0  0  0  0  0  0  0
    5.3667   -3.9542    0.0000 C   0  0  0  0  0  0  0  0  0  0  0  0
    2.2792   -3.6375    0.0000 O   0  0  0  0  0  0  0  0  0  0  0  0
    7.8667   -6.0417    0.0000 O   0  0  0  0  0  0  0  0  0  0  0  0
    4.1750   -6.0917    0.0000 C   0  0  0  0  0  0  0  0  0  0  0  0
    5.9750   -3.5875    0.0000 C   0  0  0  0  0  0  0  0  0  0  0  0
  2  1  2  0
  3  1  1  0
  4  2  1  0
  5  3  2  0
  6  3  1  0
  7  4  2  0
  8  4  1  0
  9 14  1  0
 10 12  1  0
 11  7  1  0
 12  8  2  0
 13  5  1  0
 14  6  2  0
 15  1  1  0
 16  2  1  0
 17  9  1  0
 18 10  1  0
 19 15  1  0
 20 16  1  0
  9 13  2  0
 10 11  2  0
M  END
> <chembl_id>
CHEMBL411

> <chembl_pref_name>
DIETHYLSTILBESTROL

$$$$

     RDKit          2D

  2  0  0  0  0  0  0  0  0  0999 V2000
   -1.9021   -0.6891    0.0000 O   0  0  0  0  0  0  0  0  0  0  0  0
   -2.7271   -0.6891    0.0000 Zn  0  0  0  0  0 15  0  0  0  0  0  0
M  CHG  2   1  -2   2   2
M  END
> <chembl_id>
CHEMBL3988900

> <chembl_pref_name>
ZINC OXIDE

$$$$

     RDKit          2D

 25 28  0  0  1  0  0  0  0  0999 V2000
    0.2250   -1.1250    0.0000 C   0  0  0  0  0  0  0  0  0  0  0  0
    2.0625   -0.0625    0.0000 C   0  0  0  0  0  0  0  0  0  0  0  0
    2.0625   -0.7750    0.0000 C   0  0  0  0  0  0  0  0  0  0  0  0
    0.8375   -0.7750    0.0000 C   0  0  0  0  0  0  0  0  0  0  0  0
    0.2250   -1.8417    0.0000 C   0  0  0  0  0  0  0  0  0  0  0  0
    1.4417   -1.1250    0.0000 C   0  0  0  0  0  0  0  0  0  0  0  0
    2.7375    0.1500    0.0000 C   0  0  0  0  0  0  0  0  0  0  0  0
    3.3500    0.5083    0.0000 C   0  0  0  0  0  0  0  0  0  0  0  0
    1.4417    0.2875    0.0000 C   0  0  0  0  0  0  0  0  0  0  0  0
    0.8375   -0.0625    0.0000 C   0  0  0  0  0  0  0  0  0  0  0  0
   -0.4000   -0.7750    0.0000 C   0  0  0  0  0  0  0  0  0  0  0  0
    1.4417   -1.8417    0.0000 C   0  0  0  0  0  0  0  0  0  0  0  0
    2.7375   -0.9875    0.0000 C   0  0  0  0  0  0  0  0  0  0  0  0
    3.9625    0.8708    0.0000 C   0  0  0  0  0  0  0  0  0  0  0  0
   -0.4000   -2.1917    0.0000 C   0  0  0  0  0  0  0  0  0  0  0  0
    0.8375   -2.1917    0.0000 C   0  0  0  0  0  0  0  0  0  0  0  0
    3.1417   -0.4125    0.0000 C   0  0  0  0  0  0  0  0  0  0  0  0
   -1.0125   -1.8417    0.0000 C   0  0  0  0  0  0  0  0  0  0  0  0
   -1.6375   -2.2000    0.0000 O   0  0  0  0  0  0  0  0  0  0  0  0
   -1.0125   -1.1250    0.0000 C   0  0  0  0  0  0  0  0  0  0  0  0
    2.7292    0.8583    0.0000 O   0  0  0  0  0  0  0  0  0  0  0  0
    2.0625    0.6458    0.0000 C   0  0  0  0  0  0  0  0  0  0  0  0
    2.0625   -1.4792    0.0000 H   0  0  0  0  0  0  0  0  0  0  0  0
    1.4417   -0.4250    0.0000 H   0  0  0  0  0  0  0  0  0  0  0  0
    0.8375   -1.4792    0.0000 H   0  0  0  0  0  0  0  0  0  0  0  0
  2  3  1  0
  3  6  1  0
  4  1  1  0
  5  1  2  0
  6  4  1  0
  7  2  1  0
  8  7  1  0
  9 10  1  0
 10  4  1  0
 11  1  1  0
 12 16  1  0
 13  3  1  0
 14  8  3  0
 15  5  1  0
 16  5  1  0
 17 13  1  0
 18 15  1  0
 19 18  2  0
 20 11  1  0
  7 21  1  1
  2 22  1  1
  3 23  1  6
  6 24  1  1
  4 25  1  6
 20 18  1  0
  6 12  1  0
  2  9  1  0
  7 17  1  0
M  END
> <chembl_id>
CHEMBL1387

> <chembl_pref_name>
NORETHYNODREL

$$$$

     RDKit          2D

 15 15  0  0  0  0  0  0  0  0999 V2000
    3.5250   -5.3542    0.0000 N   0  0  0  0  0  0  0  0  0  0  0  0
    4.1375   -5.0042    0.0000 C   0  0  0  0  0  0  0  0  0  0  0  0
    4.7500   -5.3542    0.0000 C   0  0  0  0  0  0  0  0  0  0  0  0
    3.5250   -6.0625    0.0000 C   0  0  0  0  0  0  0  0  0  0  0  0
    4.1375   -6.4167    0.0000 N   0  0  0  0  0  0  0  0  0  0  0  0
    4.7500   -6.0625    0.0000 C   0  0  0  0  0  0  0  0  0  0  0  0
    5.3625   -5.0042    0.0000 N   0  0  0  0  0  0  0  0  0  0  0  0
    4.1375   -4.2917    0.0000 O   0  0  0  0  0  0  0  0  0  0  0  0
    2.9042   -6.4167    0.0000 O   0  0  0  0  0  0  0  0  0  0  0  0
    6.5917   -4.2792    0.0000 Cl  0  0  0  0  0  0  0  0  0  0  0  0
    7.2125   -5.3542    0.0000 Cl  0  0  0  0  0  0  0  0  0  0  0  0
    5.3625   -4.2917    0.0000 C   0  0  0  0  0  0  0  0  0  0  0  0
    5.9750   -5.3542    0.0000 C   0  0  0  0  0  0  0  0  0  0  0  0
    6.5917   -5.0042    0.0000 C   0  0  0  0  0  0  0  0  0  0  0  0
    5.9750   -3.9375    0.0000 C   0  0  0  0  0  0  0  0  0  0  0  0
  2  1  2  0
  3  2  1  0
  4  1  1  0
  5  4  2  0
  6  5  1  0
  7  3  1  0
  8  2  1  0
  9  4  1  0
 10 15  1  0
 11 14  1  0
 12  7  1  0
 13  7  1  0
 14 13  1  0
 15 12  1  0
  6  3  2  0
M  END
> <chembl_id>
CHEMBL1488

> <chembl_pref_name>
URACIL MUSTARD

$$$$

     RDKit          2D

  9  9  0  0  0  0  0  0  0  0999 V2000
    5.0167   -5.3542    0.0000 N   0  0  0  0  0  0  0  0  0  0  0  0
    5.6167   -5.0125    0.0000 C   0  0  0  0  0  0  0  0  0  0  0  0
    5.6292   -4.3042    0.0000 C   0  0  0  0  0  0  0  0  0  0  0  0
    4.4000   -5.0125    0.0000 C   0  0  0  0  0  0  0  0  0  0  0  0
    4.4042   -4.3000    0.0000 N   0  0  0  0  0  0  0  0  0  0  0  0
    5.0042   -3.9417    0.0000 C   0  0  0  0  0  0  0  0  0  0  0  0
    3.7750   -5.3542    0.0000 O   0  0  0  0  0  0  0  0  0  0  0  0
    6.2417   -5.3667    0.0000 N   0  0  0  0  0  0  0  0  0  0  0  0
    6.2542   -3.9500    0.0000 F   0  0  0  0  0  0  0  0  0  0  0  0
  2  1  2  0
  3  2  1  0
  4  1  1  0
  5  4  1  0
  6  5  1  0
  7  4  2  0
  8  2  1  0
  9  3  1  0
  6  3  2  0
M  END
> <chembl_id>
CHEMBL1463

> <chembl_pref_name>
FLUCYTOSINE

$$$$

     RDKit          2D

 15 15  0  0  0  0  0  0  0  0999 V2000
   -0.7708    0.1000    0.0000 C   0  0  0  0  0  0  0  0  0  0  0  0
   -1.3833   -0.2542    0.0000 C   0  0  0  0  0  0  0  0  0  0  0  0
   -0.1583   -0.2417    0.0000 C   0  0  0  0  0  0  0  0  0  0  0  0
   -1.3833   -0.9625    0.0000 C   0  0  0  0  0  0  0  0  0  0  0  0
   -0.1500   -0.9542    0.0000 C   0  0  0  0  0  0  0  0  0  0  0  0
    1.6875    0.1125    0.0000 N   0  0  0  0  0  0  0  0  0  0  0  0
   -0.7708   -1.3167    0.0000 C   0  0  0  0  0  0  0  0  0  0  0  0
    1.0667   -0.2417    0.0000 C   0  0  0  0  0  0  0  0  0  0  0  0
    0.4542    0.1083    0.0000 C   0  0  0  0  0  0  0  0  0  0  0  0
   -2.0000    0.0958    0.0000 O   0  0  0  0  0  0  0  0  0  0  0  0
   -1.9958   -1.3167    0.0000 O   0  0  0  0  0  0  0  0  0  0  0  0
    0.4417    0.8208    0.0000 O   0  0  0  0  0  0  0  0  0  0  0  0
    2.3000   -0.2375    0.0000 C   0  0  0  0  0  0  0  0  0  0  0  0
    2.9167    0.1208    0.0000 C   0  0  0  0  0  0  0  0  0  0  0  0
    2.3042   -0.9500    0.0000 C   0  0  0  0  0  0  0  0  0  0  0  0
  2  1  2  0
  3  1  1  0
  4  2  1  0
  5  3  2  0
  6  8  1  0
  7  5  1  0
  8  9  1  0
  9  3  1  0
 10  2  1  0
 11  4  1  0
 12  9  1  0
 13  6  1  0
 14 13  1  0
 15 13  1  0
  7  4  2  0
M  END
> <chembl_id>
CHEMBL434

> <chembl_pref_name>
ISOPROTERENOL

$$$$

     RDKit          2D

 11 11  0  0  0  0  0  0  0  0999 V2000
    3.6625   -6.6125    0.0000 N   0  0  0  0  0  0  0  0  0  0  0  0
    3.6542   -5.9000    0.0000 C   0  0  0  0  0  0  0  0  0  0  0  0
    4.2667   -6.9542    0.0000 C   0  0  0  0  0  0  0  0  0  0  0  0
    4.8875   -6.5917    0.0000 C   0  0  0  0  0  0  0  0  0  0  0  0
    4.2750   -5.5417    0.0000 N   0  0  0  0  0  0  0  0  0  0  0  0
    4.8917   -5.9000    0.0000 C   0  0  0  0  0  0  0  0  0  0  0  0
    3.0375   -5.5500    0.0000 S   0  0  0  0  0  0  0  0  0  0  0  0
    4.2750   -7.6667    0.0000 O   0  0  0  0  0  0  0  0  0  0  0  0
    5.4917   -5.5417    0.0000 C   0  0  0  0  0  0  0  0  0  0  0  0
    6.1125   -5.8917    0.0000 C   0  0  0  0  0  0  0  0  0  0  0  0
    6.7292   -5.5417    0.0000 C   0  0  0  0  0  0  0  0  0  0  0  0
  2  1  1  0
  3  1  1  0
  4  3  1  0
  5  2  1  0
  6  4  2  0
  7  2  2  0
  8  3  2  0
  9  6  1  0
 10  9  1  0
 11 10  1  0
  6  5  1  0
M  END
> <chembl_id>
CHEMBL1518

> <chembl_pref_name>
PROPYLTHIOURACIL

$$$$

     RDKit          2D

 18 18  0  0  0  0  0  0  0  0999 V2000
    6.4292   -5.6250    0.0000 C   0  0  0  0  0  0  0  0  0  0  0  0
    7.0417   -5.2667    0.0000 O   0  0  0  0  0  0  0  0  0  0  0  0
    6.4250   -6.3292    0.0000 O   0  0  0  0  0  0  0  0  0  0  0  0
    5.2000   -5.6292    0.0000 N   0  0  0  0  0  0  0  0  0  0  0  0
    5.8167   -5.2750    0.0000 C   0  0  0  0  0  0  0  0  0  0  0  0
    2.9292   -6.2000    0.0000 N   0  0  0  0  0  0  0  0  0  0  0  0
    3.5500   -5.8417    0.0000 C   0  0  0  0  0  0  0  0  0  0  0  0
    2.3125   -5.1292    0.0000 N   0  0  0  0  0  0  0  0  0  0  0  0
    2.3125   -5.8417    0.0000 C   0  0  0  0  0  0  0  0  0  0  0  0
    3.5500   -5.1292    0.0000 C   0  0  0  0  0  0  0  0  0  0  0  0
    2.9292   -4.7792    0.0000 C   0  0  0  0  0  0  0  0  0  0  0  0
    4.2292   -6.0542    0.0000 N   0  0  0  0  0  0  0  0  0  0  0  0
    4.2292   -4.9167    0.0000 N   0  0  0  0  0  0  0  0  0  0  0  0
    4.6292   -5.4917    0.0000 C   0  0  0  0  0  0  0  0  0  0  0  0
    1.7042   -6.2000    0.0000 O   0  0  0  0  0  0  0  0  0  0  0  0
    2.9292   -4.0667    0.0000 O   0  0  0  0  0  0  0  0  0  0  0  0
    2.9292   -6.9125    0.0000 C   0  0  0  0  0  0  0  0  0  0  0  0
    1.7042   -4.7792    0.0000 C   0  0  0  0  0  0  0  0  0  0  0  0
  2  1  1  0
  3  1  2  0
  4  5  1  0
  5  1  1  0
  7  6  1  0
  8  9  1  0
  9  6  1  0
 10  7  2  0
 11  8  1  0
 12  7  1  0
 13 10  1  0
 14 12  2  0
 15  9  2  0
 16 11  2  0
 17  6  1  0
 18  8  1  0
 11 10  1  0
 14 13  1  0
M  END
> <chembl_id>
CHEMBL1208646

> <chembl_pref_name>
THEOPHYLLINE GLYCINATE

$$$$

     RDKit          2D

 19 20  0  0  0  0  0  0  0  0999 V2000
    1.5917   -2.4625    0.0000 N   0  0  0  0  0  0  0  0  0  0  0  0
    0.9792   -2.8167    0.0000 C   0  0  0  0  0  0  0  0  0  0  0  0
    2.2042   -2.8167    0.0000 C   0  0  0  0  0  0  0  0  0  0  0  0
    3.4167   -1.3917    0.0000 C   0  0  0  0  0  0  0  0  0  0  0  0
    2.8125   -2.4542    0.0000 C   0  0  0  0  0  0  0  0  0  0  0  0
    0.9792   -3.5292    0.0000 C   0  0  0  0  0  0  0  0  0  0  0  0
    0.3667   -2.4667    0.0000 C   0  0  0  0  0  0  0  0  0  0  0  0
    2.8042   -1.7500    0.0000 C   0  0  0  0  0  0  0  0  0  0  0  0
    4.0292   -1.7417    0.0000 O   0  0  0  0  0  0  0  0  0  0  0  0
    3.4042   -0.6792    0.0000 O   0  0  0  0  0  0  0  0  0  0  0  0
    1.5917   -3.8875    0.0000 Cl  0  0  0  0  0  0  0  0  0  0  0  0
    0.3667   -1.7542    0.0000 Cl  0  0  0  0  0  0  0  0  0  0  0  0
   -0.2458   -3.5292    0.0000 C   0  0  0  0  0  0  0  0  0  0  0  0
    2.2042   -3.5250    0.0000 C   0  0  0  0  0  0  0  0  0  0  0  0
   -0.2458   -2.8167    0.0000 C   0  0  0  0  0  0  0  0  0  0  0  0
    0.3667   -3.8875    0.0000 C   0  0  0  0  0  0  0  0  0  0  0  0
    3.4250   -2.8042    0.0000 C   0  0  0  0  0  0  0  0  0  0  0  0
    3.4292   -3.5167    0.0000 C   0  0  0  0  0  0  0  0  0  0  0  0
    2.8167   -3.8750    0.0000 C   0  0  0  0  0  0  0  0  0  0  0  0
  2  1  1  0
  3  1  1  0
  4  8  1  0
  5  3  1  0
  6  2  1  0
  7  2  2  0
  8  5  1  0
  9  4  1  0
 10  4  2  0
 11  6  1  0
 12  7  1  0
 13 15  2  0
 14  3  2  0
 15  7  1  0
 16  6  2  0
 17  5  2  0
 18 19  2  0
 19 14  1  0
 13 16  1  0
 17 18  1  0
M  END
> <chembl_id>
CHEMBL139

> <chembl_pref_name>
DICLOFENAC

$$$$

     RDKit          2D

 17 16  0  0  0  0  0  0  0  0999 V2000
    1.5042   -0.1750    0.0000 N   0  0  0  0  0  0  0  0  0  0  0  0
    4.2625   -0.6792    0.0000 O   0  0  0  0  0  0  0  0  0  0  0  0
    2.5792    0.0583    0.0000 C   0  0  0  0  0  0  0  0  0  0  0  0
    1.6792   -1.2417    0.0000 C   0  0  0  0  0  0  0  0  0  0  0  0
    1.3542    0.8833    0.0000 C   0  0  0  0  0  0  0  0  0  0  0  0
    0.4542   -0.3167    0.0000 C   0  0  0  0  0  0  0  0  0  0  0  0
    3.1750   -0.9292    0.0000 C   0  0  0  0  0  0  0  0  0  0  0  0
   -2.2333    0.1833    0.0000 C   0  0  0  0  0  0  0  0  0  0  0  0
   -1.3625    0.6625    0.0000 C   0  0  0  0  0  0  0  0  0  0  0  0
   -2.3250   -0.9917    0.0000 C   0  0  0  0  0  0  0  0  0  0  0  0
   -0.3708    0.1250    0.0000 O   0  0  0  0  0  0  0  0  0  0  0  0
   -1.3208    1.7625    0.0000 O   0  0  0  0  0  0  0  0  0  0  0  0
   -1.4333   -1.6792    0.0000 O   0  0  0  0  0  0  0  0  0  0  0  0
   -3.2000    0.8500    0.0000 C   0  0  0  0  0  0  0  0  0  0  0  0
   -3.3833   -1.4917    0.0000 C   0  0  0  0  0  0  0  0  0  0  0  0
   -4.2583    0.3458    0.0000 C   0  0  0  0  0  0  0  0  0  0  0  0
   -4.3458   -0.8292    0.0000 C   0  0  0  0  0  0  0  0  0  0  0  0
  2  7  1  0
  3  1  1  0
  4  1  1  0
  5  1  1  0
  6  1  1  0
  7  3  1  0
  9  8  1  0
 10  8  1  0
 11  9  1  0
 12  9  2  0
 13 10  1  0
 14  8  2  0
 15 10  2  0
 16 14  1  0
 17 15  1  0
 16 17  2  0
M  CHG  2   1   1  11  -1
M  END
> <chembl_id>
CHEMBL2104095

> <chembl_pref_name>
CHOLINE SALICYLATE

$$$$

     RDKit          2D

  3  0  0  0  0  0  0  0  0  0999 V2000
    2.0250   -4.2042    0.0000 Sr  0  0  0  0  0 15  0  0  0  0  0  0
    0.7750   -4.2167    0.0000 Cl  0  0  0  0  0  0  0  0  0  0  0  0
    3.1500   -4.2167    0.0000 Cl  0  0  0  0  0  0  0  0  0  0  0  0
M  CHG  3   1   2   2  -1   3  -1
M  ISO  1   1  89
M  END
> <chembl_id>
CHEMBL1200625

> <chembl_pref_name>
STRONTIUM CHLORIDE SR 89

$$$$

     RDKit          2D

 21 24  0  0  0  0  0  0  0  0999 V2000
   -5.3808    2.2608    0.0000 C   0  0  0  0  0  0  0  0  0  0  0  0
   -5.9642    2.8442    0.0000 C   0  0  0  0  0  0  0  0  0  0  0  0
   -6.7892    2.8442    0.0000 C   0  0  0  0  0  0  0  0  0  0  0  0
   -7.3726    2.2608    0.0000 N   0  0  0  0  0  0  0  0  0  0  0  0
   -7.3726    1.4358    0.0000 C   0  0  0  0  0  0  0  0  0  0  0  0
   -6.7892    0.8524    0.0000 C   0  0  0  0  0  0  0  0  0  0  0  0
   -5.9642    0.8524    0.0000 C   0  0  0  0  0  0  0  0  0  0  0  0
   -5.3808    1.4358    0.0000 N   0  0  0  0  0  0  0  0  0  0  0  0
   -4.6663    1.0233    0.0000 C   0  0  0  0  0  0  0  0  0  0  0  0
   -3.9518    1.4358    0.0000 C   0  0  0  0  0  0  0  0  0  0  0  0
   -3.9518    2.2608    0.0000 C   0  0  0  0  0  0  0  0  0  0  0  0
   -4.6663    2.6733    0.0000 C   0  0  0  0  0  0  0  0  0  0  0  0
   -8.0871    1.0233    0.0000 C   0  0  0  0  0  0  0  0  0  0  0  0
   -8.8015    1.4358    0.0000 C   0  0  0  0  0  0  0  0  0  0  0  0
   -8.8015    2.2608    0.0000 C   0  0  0  0  0  0  0  0  0  0  0  0
   -8.0871    2.6733    0.0000 C   0  0  0  0  0  0  0  0  0  0  0  0
   -5.9454    1.8175    0.0000 C   0  0  0  0  0  0  0  0  0  0  0  0
   -7.1049    0.0902    0.0000 H   0  0  0  0  0  0  0  0  0  0  0  0
   -5.6485    3.6064    0.0000 H   0  0  0  0  0  0  0  0  0  0  0  0
   -7.5861    0.6389    0.0000 H   0  0  0  0  0  0  0  0  0  0  0  0
   -5.1672    3.0577    0.0000 H   0  0  0  0  0  0  0  0  0  0  0  0
  1  2  1  0
  2  3  1  0
  3  4  1  0
  5  6  1  0
  6  7  1  0
  7  8  1  0
  8  9  1  0
  1  8  1  0
  1 12  1  0
  9 10  1  0
 10 11  1  0
 11 12  1  0
  4 16  1  0
  4  5  1  0
  5 13  1  0
 13 14  1  0
 14 15  1  0
 15 16  1  0
  2 17  1  0
 17  6  1  0
  6 18  1  1
  2 19  1  1
  5 20  1  6
  1 21  1  1
M  END
> <chembl_id>
CHEMBL412873

> <chembl_pref_name>
SPARTEINE

$$$$

     RDKit          2D

 19 19  0  0  1  0  0  0  0  0999 V2000
   -1.6688   -6.1708    0.0000 O   0  0  0  0  0  0  0  0  0  0  0  0
   -3.0978   -5.3458    0.0000 O   0  0  0  0  0  0  0  0  0  0  0  0
    2.6180   -7.8208    0.0000 O   0  0  0  0  0  0  0  0  0  0  0  0
   -4.5267   -6.1708    0.0000 N   0  0  0  0  0  0  0  0  0  0  0  0
   -0.9544   -6.5833    0.0000 C   0  0  0  0  0  0  0  0  0  0  0  0
    0.4746   -7.4083    0.0000 C   0  0  0  0  0  0  0  0  0  0  0  0
   -0.9544   -7.4083    0.0000 C   0  0  0  0  0  0  0  0  0  0  0  0
   -0.2399   -6.1708    0.0000 C   0  0  0  0  0  0  0  0  0  0  0  0
   -0.2399   -7.8208    0.0000 C   0  0  0  0  0  0  0  0  0  0  0  0
    0.4746   -6.5833    0.0000 C   0  0  0  0  0  0  0  0  0  0  0  0
    1.1891   -7.8208    0.0000 C   0  0  0  0  0  0  0  0  0  0  0  0
   -2.3833   -6.5833    0.0000 C   0  0  0  0  0  0  0  0  0  0  0  0
   -3.0978   -6.1708    0.0000 C   0  0  0  0  0  0  0  0  0  0  0  0
    1.9035   -7.4083    0.0000 C   0  0  0  0  0  0  0  0  0  0  0  0
   -3.8122   -6.5833    0.0000 C   0  0  0  0  0  0  0  0  0  0  0  0
   -5.2412   -6.5833    0.0000 C   0  0  0  0  0  0  0  0  0  0  0  0
    3.3325   -7.4083    0.0000 C   0  0  0  0  0  0  0  0  0  0  0  0
   -5.9557   -6.1708    0.0000 C   0  0  0  0  0  0  0  0  0  0  0  0
   -5.2412   -7.4083    0.0000 C   0  0  0  0  0  0  0  0  0  0  0  0
  1  5  1  0
  1 12  1  0
  2 13  1  0
  3 14  1  0
  3 17  1  0
  4 15  1  0
  4 16  1  0
  5  7  2  0
  5  8  1  0
  6  9  2  0
  6 10  1  0
  6 11  1  0
  7  9  1  0
  8 10  2  0
 11 14  1  0
 12 13  1  0
 13 15  1  0
 16 18  1  0
 16 19  1  0
M  END
> <chembl_id>
CHEMBL13

> <chembl_pref_name>
METOPROLOL

$$$$

     RDKit          2D

  9  6  0  0  0  0  0  0  0  0999 V2000
    0.4000   -5.7792    0.0000 Zn  0  0  0  0  0 15  0  0  0  0  0  0
   -0.5458   -5.6875    0.0000 C   0  0  0  0  0  0  0  0  0  0  0  0
   -0.1958   -5.0750    0.0000 O   0  0  0  0  0  0  0  0  0  0  0  0
   -1.2583   -5.6875    0.0000 O   0  0  0  0  0  0  0  0  0  0  0  0
   -0.1958   -6.3042    0.0000 C   0  0  0  0  0  0  0  0  0  0  0  0
    1.8500   -5.6875    0.0000 C   0  0  0  0  0  0  0  0  0  0  0  0
    1.4917   -5.0750    0.0000 O   0  0  0  0  0  0  0  0  0  0  0  0
    2.5542   -5.6875    0.0000 O   0  0  0  0  0  0  0  0  0  0  0  0
    1.4917   -6.3042    0.0000 C   0  0  0  0  0  0  0  0  0  0  0  0
  3  2  1  0
  4  2  2  0
  5  2  1  0
  7  6  1  0
  8  6  2  0
  9  6  1  0
M  CHG  3   1   2   3  -1   7  -1
M  END
> <chembl_id>
CHEMBL1200928

> <chembl_pref_name>
ZINC ACETATE

$$$$

     RDKit          2D

 18 19  0  0  0  0  0  0  0  0999 V2000
   10.7582  -23.3680    0.0000 C   0  0  0  0  0  0  0  0  0  0  0  0
   10.7582  -22.5466    0.0000 C   0  0  0  0  0  0  0  0  0  0  0  0
    9.9775  -23.6194    0.0000 O   0  0  0  0  0  0  0  0  0  0  0  0
    9.4929  -22.9573    0.0000 C   0  0  0  0  0  0  0  0  0  0  0  0
    9.9755  -22.2873    0.0000 C   0  0  0  0  0  0  0  0  0  0  0  0
    9.4874  -21.6213    0.0000 O   0  0  0  0  0  0  0  0  0  0  0  0
    8.7032  -21.8796    0.0000 C   0  0  0  0  0  0  0  0  0  0  0  0
    8.7066  -22.7053    0.0000 C   0  0  0  0  0  0  0  0  0  0  0  0
    8.0439  -23.1908    0.0000 O   0  0  0  0  0  0  0  0  0  0  0  0
    8.1331  -24.0074    0.0000 N   0  0  0  0  0  0  0  0  0  0  0  0
    8.8881  -24.3412    0.0000 O   0  0  0  0  0  0  0  0  0  0  0  0
    7.4738  -24.4957    0.0000 O   0  0  0  0  0  0  0  0  0  0  0  0
    8.9078  -23.5464    0.0000 H   0  0  0  0  0  0  0  0  0  0  0  0
   11.4242  -22.0656    0.0000 O   0  0  0  0  0  0  0  0  0  0  0  0
   10.3848  -21.5799    0.0000 H   0  0  0  0  0  0  0  0  0  0  0  0
   12.1737  -22.4018    0.0000 N   0  0  0  0  0  0  0  0  0  0  0  0
   12.8432  -21.9191    0.0000 O   0  0  0  0  0  0  0  0  0  0  0  0
   12.2609  -23.2174    0.0000 O   0  0  0  0  0  0  0  0  0  0  0  0
  1  2  1  0
  2  5  1  0
  4  3  1  0
  3  1  1  0
  4  5  1  0
  5  6  1  0
  6  7  1  0
  7  8  1  0
  8  4  1  0
  8  9  1  6
  9 10  1  0
 10 11  2  0
 10 12  1  0
  2 14  1  1
 14 16  1  0
 16 17  2  0
 16 18  1  0
  5 15  1  1
  4 13  1  1
M  CHG  4  10   1  12  -1  16   1  18  -1
M  END
> <chembl_id>
CHEMBL6622

> <chembl_pref_name>
ISOSORBIDE DINITRATE

$$$$

     RDKit          2D

  8  7  0  0  0  0  0  0  0  0999 V2000
   -0.7833   -1.3792    0.0000 N   0  0  0  0  0  0  0  0  0  0  0  0
    0.4792    0.7750    0.0000 C   0  0  0  0  0  0  0  0  0  0  0  0
   -0.7833    0.0500    0.0000 C   0  0  0  0  0  0  0  0  0  0  0  0
    0.4792    2.2208    0.0000 O   0  0  0  0  0  0  0  0  0  0  0  0
    1.7167    0.0500    0.0000 O   0  0  0  0  0  0  0  0  0  0  0  0
    0.5917   -1.7417    0.0000 C   0  0  0  0  0  0  0  0  0  0  0  0
    0.2167   -2.3792    0.0000 C   0  0  0  0  0  0  0  0  0  0  0  0
   -2.0208   -2.0875    0.0000 C   0  0  0  0  0  0  0  0  0  0  0  0
  2  3  1  0
  3  1  1  0
  4  2  2  0
  5  2  1  0
  6  1  1  0
  7  1  1  0
  8  1  1  0
M  CHG  1   1   1
M  END
> <chembl_id>
CHEMBL95889

> <chembl_pref_name>
BETAINE

$$$$

     RDKit          2D

 19 22  0  0  0  0  0  0  0  0999 V2000
    5.9000   -0.9542    0.0000 N   0  0  0  0  0  0  0  0  0  0  0  0
    6.6042   -1.1042    0.0000 C   0  0  0  0  0  0  0  0  0  0  0  0
    5.8250   -0.2417    0.0000 C   0  0  0  0  0  0  0  0  0  0  0  0
    6.4833    0.0542    0.0000 N   0  0  0  0  0  0  0  0  0  0  0  0
    5.3458   -1.4083    0.0000 C   0  0  0  0  0  0  0  0  0  0  0  0
    6.9208   -1.7500    0.0000 C   0  0  0  0  0  0  0  0  0  0  0  0
    6.9667   -0.4833    0.0000 C   0  0  0  0  0  0  0  0  0  0  0  0
    5.3458   -2.1208    0.0000 C   0  0  0  0  0  0  0  0  0  0  0  0
    6.6125   -2.4000    0.0000 C   0  0  0  0  0  0  0  0  0  0  0  0
    5.9125   -2.5667    0.0000 C   0  0  0  0  0  0  0  0  0  0  0  0
    5.2042    0.1125    0.0000 N   0  0  0  0  0  0  0  0  0  0  0  0
    4.7333   -1.0542    0.0000 C   0  0  0  0  0  0  0  0  0  0  0  0
    7.6292   -1.6875    0.0000 C   0  0  0  0  0  0  0  0  0  0  0  0
    4.7333   -2.4750    0.0000 C   0  0  0  0  0  0  0  0  0  0  0  0
    7.0208   -2.9875    0.0000 C   0  0  0  0  0  0  0  0  0  0  0  0
    4.1208   -1.4125    0.0000 C   0  0  0  0  0  0  0  0  0  0  0  0
    8.0417   -2.2750    0.0000 C   0  0  0  0  0  0  0  0  0  0  0  0
    7.7375   -2.9292    0.0000 C   0  0  0  0  0  0  0  0  0  0  0  0
    4.1208   -2.1208    0.0000 C   0  0  0  0  0  0  0  0  0  0  0  0
  2  1  1  0
  3  1  1  0
  4  3  2  0
  5  1  1  0
  6  2  1  0
  7  2  1  0
  8  5  1  0
  9  6  2  0
 10  8  1  0
 11  3  1  0
 12  5  2  0
 13  6  1  0
 14  8  2  0
 15  9  1  0
 16 12  1  0
 17 13  2  0
 18 17  1  0
 19 14  1  0
  4  7  1  0
  9 10  1  0
 19 16  2  0
 18 15  2  0
M  END
> <chembl_id>
CHEMBL1106

> <chembl_pref_name>
EPINASTINE

$$$$

     RDKit          2D

  5  4  0  0  0  0  0  0  0  0999 V2000
    9.1542   -2.2125    0.0000 C   0  0  0  0  0  0  0  0  0  0  0  0
    8.3292   -2.2125    0.0000 Cl  0  0  0  0  0  0  0  0  0  0  0  0
    9.1542   -1.3875    0.0000 Cl  0  0  0  0  0  0  0  0  0  0  0  0
    9.9792   -2.2125    0.0000 Cl  0  0  0  0  0  0  0  0  0  0  0  0
    9.1542   -3.0375    0.0000 C   0  0  0  0  0  0  0  0  0  0  0  0
  2  1  1  0
  3  1  1  0
  4  1  1  0
  5  1  1  0
M  END
> <chembl_id>
CHEMBL16080

> <chembl_pref_name>
TRICHLOROETHANE

$$$$

     RDKit          2D

 19 21  0  0  1  0  0  0  0  0999 V2000
    3.6500   -2.7042    0.0000 C   0  0  0  0  0  0  0  0  0  0  0  0
    2.8375   -2.5667    0.0000 C   0  0  0  0  0  0  0  0  0  0  0  0
    2.3167   -3.2000    0.0000 C   0  0  0  0  0  0  0  0  0  0  0  0
    3.9375   -3.4667    0.0000 C   0  0  0  0  0  0  0  0  0  0  0  0
    6.3667   -0.8542    0.0000 C   0  0  0  0  0  0  0  0  0  0  0  0
    1.5542   -2.9000    0.0000 O   0  0  0  0  0  0  0  0  0  0  0  0
    4.2875   -2.1917    0.0000 C   0  0  0  0  0  0  0  0  0  0  0  0
    6.3292   -0.0292    0.0000 O   0  0  0  0  0  0  0  0  0  0  0  0
    2.6000   -3.9667    0.0000 C   0  0  0  0  0  0  0  0  0  0  0  0
    3.4125   -4.1042    0.0000 C   0  0  0  0  0  0  0  0  0  0  0  0
    4.7500   -3.4292    0.0000 C   0  0  0  0  0  0  0  0  0  0  0  0
    4.9667   -2.6417    0.0000 C   0  0  0  0  0  0  0  0  0  0  0  0
    5.6750   -1.3042    0.0000 N   0  0  0  0  0  0  0  0  0  0  0  0
    1.6042   -2.0792    0.0000 C   0  0  0  0  0  0  0  0  0  0  0  0
    2.3917   -1.8750    0.0000 C   0  0  0  0  0  0  0  0  0  0  0  0
    4.9417   -0.9250    0.0000 C   0  0  0  0  0  0  0  0  0  0  0  0
    7.1042   -1.2375    0.0000 C   0  0  0  0  0  0  0  0  0  0  0  0
    4.2500   -1.3667    0.0000 C   0  0  0  0  0  0  0  0  0  0  0  0
    7.7917   -0.7917    0.0000 C   0  0  0  0  0  0  0  0  0  0  0  0
  2  1  1  0
  3  2  2  0
  4  1  2  0
  5 13  1  0
  6  3  1  0
  7  1  1  0
  8  5  2  0
  9 10  2  0
 10  4  1  0
 11  4  1  0
 12  7  1  0
 13 16  1  0
 14 15  1  0
 15  2  1  0
 16 18  1  0
 17  5  1  0
  7 18  1  6
 19 17  1  0
 12 11  1  0
  9  3  1  0
  6 14  1  0
M  END
> <chembl_id>
CHEMBL1218

> <chembl_pref_name>
RAMELTEON

$$$$

     RDKit          2D

 25 29  0  0  0  0  0  0  0  0999 V2000
   14.8172  -11.0315    0.0000 C   0  0  0  0  0  0  0  0  0  0  0  0
   15.6156  -11.0412    0.0000 C   0  0  0  0  0  0  0  0  0  0  0  0
   14.4351  -11.7236    0.0000 C   0  0  0  0  0  0  0  0  0  0  0  0
   16.0124  -11.7235    0.0000 C   0  0  0  0  0  0  0  0  0  0  0  0
   14.4205  -10.3493    0.0000 C   0  0  0  0  0  0  0  0  0  0  0  0
   15.2528  -12.1590    0.0000 O   0  0  0  0  0  0  0  0  0  0  0  0
   14.8124   -9.6670    0.0000 C   0  0  0  0  0  0  0  0  0  0  0  0
   16.0123  -10.3492    0.0000 C   0  0  0  0  0  0  0  0  0  0  0  0
   15.6155   -9.6622    0.0000 C   0  0  0  0  0  0  0  0  0  0  0  0
   14.4204   -8.9752    0.0000 N   0  0  0  0  0  0  0  0  0  0  0  0
   15.2236  -10.3396    0.0000 C   0  0  0  0  0  0  0  0  0  0  0  0
   13.6367  -11.7332    0.0000 C   0  0  0  0  0  0  0  0  0  0  0  0
   13.6317  -10.3542    0.0000 C   0  0  0  0  0  0  0  0  0  0  0  0
   16.8059  -11.7234    0.0000 C   0  0  0  0  0  0  0  0  0  0  0  0
   15.2139   -8.9751    0.0000 C   0  0  0  0  0  0  0  0  0  0  0  0
   16.8058  -10.3492    0.0000 C   0  0  0  0  0  0  0  0  0  0  0  0
   13.2350  -11.0461    0.0000 C   0  0  0  0  0  0  0  0  0  0  0  0
   13.2399  -12.4300    0.0000 O   0  0  0  0  0  0  0  0  0  0  0  0
   17.2027  -11.0411    0.0000 C   0  0  0  0  0  0  0  0  0  0  0  0
   17.2124  -12.4153    0.0000 O   0  0  0  0  0  0  0  0  0  0  0  0
   13.7283   -8.5736    0.0000 C   0  0  0  0  0  0  0  0  0  0  0  0
   18.0060  -12.4152    0.0000 C   0  0  0  0  0  0  0  0  0  0  0  0
   15.3133   -8.8015    0.0000 H   0  0  0  0  0  0  0  0  0  0  0  0
   13.9168   -9.4854    0.0000 H   0  0  0  0  0  0  0  0  0  0  0  0
   14.1987  -12.6952    0.0000 H   0  0  0  0  0  0  0  0  0  0  0  0
 10 15  1  0
  1 11  1  6
 12  3  1  0
 13  5  1  0
 14  4  2  0
 15 11  1  0
 16  8  1  0
 17 13  1  0
 18 12  2  0
 19 16  2  0
 20 14  1  0
 21 10  1  0
 22 20  1  0
  6  4  1  0
  7 10  1  0
 17 12  1  0
  9  8  1  0
 14 19  1  0
  2  1  1  0
  3  1  1  0
  4  2  1  0
  5  1  1  0
  3  6  1  0
  7  5  1  0
  8  2  2  0
  9  7  1  0
  7 23  1  1
  5 24  1  6
  3 25  1  6
M  END
> <chembl_id>
CHEMBL1457

> <chembl_pref_name>
HYDROCODONE

$$$$

     RDKit          2D

 13 15  0  0  1  0  0  0  0  0999 V2000
    4.0380   -5.7090    0.0000 C   0  0  0  0  0  0  0  0  0  0  0  0
    4.7149   -5.2309    0.0000 O   0  0  0  0  0  0  0  0  0  0  0  0
    3.3232   -4.4499    0.0000 N   0  0  0  0  0  0  0  0  0  0  0  0
    5.0984   -6.5091    0.0000 S   0  0  0  0  0  0  0  0  0  0  0  0
    4.0380   -4.8617    0.0000 C   0  0  0  0  0  0  0  0  0  0  0  0
    4.3031   -6.5091    0.0000 C   0  0  0  0  0  0  0  0  0  0  0  0
    5.3730   -5.7232    0.0000 C   0  0  0  0  0  0  0  0  0  0  0  0
    3.3232   -6.1209    0.0000 C   0  0  0  0  0  0  0  0  0  0  0  0
    3.6120   -5.4960    0.0000 C   0  0  0  0  0  0  0  0  0  0  0  0
    2.6131   -5.7090    0.0000 C   0  0  0  0  0  0  0  0  0  0  0  0
    2.6131   -4.8901    0.0000 C   0  0  0  0  0  0  0  0  0  0  0  0
    3.0297   -5.1410    0.0000 C   0  0  0  0  0  0  0  0  0  0  0  0
    6.1635   -5.3019    0.0000 C   0  0  0  0  0  0  0  0  0  0  0  0
  2  1  1  0
  3  5  1  0
  4  6  1  0
  1  5  1  0
  6  1  1  0
  7  2  1  0
  8  1  1  0
  9  8  1  0
 10  8  1  0
 11 10  1  0
 12  9  1  0
  7 13  1  0
  7  4  1  0
 11  3  1  0
 12  3  1  0
M  END
> <chembl_id>
CHEMBL168815

> <chembl_pref_name>
CEVIMELINE

$$$$

     RDKit          2D

 10 10  0  0  0  0  0  0  0  0999 V2000
    2.3238   -0.1256    0.0000 O   0  0  0  0  0  0  0  0  0  0  0  0
    1.2990   -0.7500    0.0000 B   0  0  0  0  0  0  0  0  0  0  0  0
    1.2709   -1.9497    0.0000 O   0  0  0  0  0  0  0  0  0  0  0  0
    1.2990    0.7500    0.0000 O   0  0  0  0  0  0  0  0  0  0  0  0
    0.0000    1.5000    0.0000 O   0  0  0  0  0  0  0  0  0  0  0  0
   -1.2990    0.7500    0.0000 B   0  0  0  0  0  0  0  0  0  0  0  0
   -1.2707    1.9497    0.0000 O   0  0  0  0  0  0  0  0  0  0  0  0
   -2.3239    0.1257    0.0000 O   0  0  0  0  0  0  0  0  0  0  0  0
   -1.2990   -0.7500    0.0000 O   0  0  0  0  0  0  0  0  0  0  0  0
    0.0000   -1.5000    0.0000 O   0  0  0  0  0  0  0  0  0  0  0  0
  1  2  1  0
  2  3  1  0
  2  4  1  0
  4  5  1  0
  5  6  1  0
  6  7  1  0
  6  8  1  0
  6  9  1  0
  9 10  1  0
  2 10  1  0
M  CHG  2   2  -1   6  -1
M  END
> <chembl_id>
CHEMBL3707334

> <chembl_pref_name>
PERBORIC ACID

$$$$

     RDKit          2D

 21 22  0  0  1  0  0  0  0  0999 V2000
   -0.1407    0.5922    0.0000 C   0  0  0  0  0  0  0  0  0  0  0  0
   -0.8592    0.1748    0.0000 C   0  0  0  0  0  0  0  0  0  0  0  0
   -0.8592   -0.6553    0.0000 C   0  0  0  0  0  0  0  0  0  0  0  0
   -1.5679    0.5922    0.0000 C   0  0  0  0  0  0  0  0  0  0  0  0
    0.5680    0.1748    0.0000 C   0  0  0  0  0  0  0  0  0  0  0  0
    1.2719    0.5922    0.0000 N   0  0  0  0  0  0  0  0  0  0  0  0
   -2.2961   -0.6408    0.0000 C   0  0  0  0  0  0  0  0  0  0  0  0
    4.8641   -0.5583    0.0000 C   0  0  0  0  0  0  0  0  0  0  0  0
   -2.2913    0.1748    0.0000 C   0  0  0  0  0  0  0  0  0  0  0  0
   -1.5728   -1.0680    0.0000 C   0  0  0  0  0  0  0  0  0  0  0  0
   -0.1407    1.4126    0.0000 O   0  0  0  0  0  0  0  0  0  0  0  0
    3.4224    0.2330    0.0000 C   0  0  0  0  0  0  0  0  0  0  0  0
    4.1554   -0.9806    0.0000 C   0  0  0  0  0  0  0  0  0  0  0  0
    4.8399    0.2718    0.0000 C   0  0  0  0  0  0  0  0  0  0  0  0
    3.4272   -0.5874    0.0000 C   0  0  0  0  0  0  0  0  0  0  0  0
    4.1263    0.6650    0.0000 C   0  0  0  0  0  0  0  0  0  0  0  0
    1.9952    0.1990    0.0000 C   0  0  0  0  0  0  0  0  0  0  0  0
   -3.0243   -1.0243    0.0000 O   0  0  0  0  0  0  0  0  0  0  0  0
    5.5972   -0.9661    0.0000 O   0  0  0  0  0  0  0  0  0  0  0  0
    2.7039    0.6213    0.0000 C   0  0  0  0  0  0  0  0  0  0  0  0
    0.5680   -0.6457    0.0000 C   0  0  0  0  0  0  0  0  0  0  0  0
  2  1  1  0
  3  2  2  0
  4  2  1  0
  5  1  1  0
  6  5  1  0
  7  9  1  0
  8 14  1  0
  9  4  2  0
 10  3  1  0
  1 11  1  0
 12 20  1  0
 13 15  1  0
 14 16  2  0
 15 12  2  0
 16 12  1  0
 17  6  1  0
 18  7  1  0
 19  8  1  0
 20 17  1  0
  5 21  1  0
  7 10  2  0
  8 13  2  0
M  END
> <chembl_id>
CHEMBL83063

> <chembl_pref_name>
RITODRINE

$$$$

     RDKit          2D

 21 21  0  0  0  0  0  0  0  0999 V2000
   -0.4142   -0.1650    0.0000 C   0  0  0  0  0  0  0  0  0  0  0  0
   -0.4156   -0.9927    0.0000 C   0  0  0  0  0  0  0  0  0  0  0  0
    0.3005   -1.4057    0.0000 C   0  0  0  0  0  0  0  0  0  0  0  0
    1.0185   -0.9922    0.0000 C   0  0  0  0  0  0  0  0  0  0  0  0
    1.0152   -0.1655    0.0000 C   0  0  0  0  0  0  0  0  0  0  0  0
    0.2984    0.2430    0.0000 C   0  0  0  0  0  0  0  0  0  0  0  0
   -1.1275    0.2494    0.0000 O   0  0  0  0  0  0  0  0  0  0  0  0
   -1.8430   -0.1612    0.0000 C   0  0  0  0  0  0  0  0  0  0  0  0
    1.7337   -1.4037    0.0000 C   0  0  0  0  0  0  0  0  0  0  0  0
    2.4475   -0.9901    0.0000 C   0  0  0  0  0  0  0  0  0  0  0  0
    3.1625   -1.4016    0.0000 C   0  0  0  0  0  0  0  0  0  0  0  0
    3.8765   -0.9880    0.0000 O   0  0  0  0  0  0  0  0  0  0  0  0
    3.1638   -2.2266    0.0000 O   0  0  0  0  0  0  0  0  0  0  0  0
    4.5915   -1.3995    0.0000 C   0  0  0  0  0  0  0  0  0  0  0  0
    5.3053   -0.9860    0.0000 C   0  0  0  0  0  0  0  0  0  0  0  0
    6.0204   -1.3974    0.0000 C   0  0  0  0  0  0  0  0  0  0  0  0
    6.7343   -0.9839    0.0000 C   0  0  0  0  0  0  0  0  0  0  0  0
    5.3042   -0.1610    0.0000 C   0  0  0  0  0  0  0  0  0  0  0  0
    6.0180    0.2525    0.0000 C   0  0  0  0  0  0  0  0  0  0  0  0
    7.4494   -1.3953    0.0000 C   0  0  0  0  0  0  0  0  0  0  0  0
    8.1633   -0.9818    0.0000 C   0  0  0  0  0  0  0  0  0  0  0  0
  6  1  1  0
 10 11  1  0
  1  2  2  0
 11 12  1  0
  3  4  2  0
 11 13  2  0
 12 14  1  0
  1  7  1  0
 14 15  1  0
  4  5  1  0
 15 16  1  0
  7  8  1  0
 16 17  1  0
  2  3  1  0
 15 18  1  0
  4  9  1  0
 18 19  1  0
  5  6  2  0
 17 20  1  0
  9 10  2  3
 20 21  1  0
M  END
> <chembl_id>
CHEMBL3183184

> <chembl_pref_name>
OCTINOXATE

$$$$

     RDKit          2D

 13 13  0  0  1  0  0  0  0  0999 V2000
    2.1250   -5.3750    0.0000 C   0  0  0  0  0  0  0  0  0  0  0  0
    1.5083   -5.0167    0.0000 C   0  0  0  0  0  0  0  0  0  0  0  0
    2.1250   -6.0792    0.0000 O   0  0  0  0  0  0  0  0  0  0  0  0
    1.5083   -4.3125    0.0000 C   0  0  0  0  0  0  0  0  0  0  0  0
    2.1250   -3.9542    0.0000 C   0  0  0  0  0  0  0  0  0  0  0  0
    0.9000   -5.3750    0.0000 N   0  0  0  0  0  0  0  0  0  0  0  0
    2.7375   -5.0167    0.0000 O   0  0  0  0  0  0  0  0  0  0  0  0
    3.3500   -3.2500    0.0000 C   0  0  0  0  0  0  0  0  0  0  0  0
    2.1250   -3.2500    0.0000 C   0  0  0  0  0  0  0  0  0  0  0  0
    2.7375   -4.3125    0.0000 C   0  0  0  0  0  0  0  0  0  0  0  0
    3.3500   -3.9542    0.0000 C   0  0  0  0  0  0  0  0  0  0  0  0
    2.7375   -2.8917    0.0000 C   0  0  0  0  0  0  0  0  0  0  0  0
    3.9667   -2.8917    0.0000 O   0  0  0  0  0  0  0  0  0  0  0  0
  2  1  1  0
  3  1  2  0
  2  4  1  1
  5  4  1  0
  6  2  1  0
  7  1  1  0
  8 11  2  0
  9  5  1  0
 10  5  2  0
 11 10  1  0
 12  9  2  0
 13  8  1  0
  8 12  1  0
M  END
> <chembl_id>
CHEMBL925

> <chembl_pref_name>
TYROSINE

$$$$

     RDKit          2D

 19 20  0  0  1  0  0  0  0  0999 V2000
    2.3174   -7.4867    0.0000 C   0  0  0  0  0  0  0  0  0  0  0  0
    2.3125   -6.6608    0.0000 C   0  0  0  0  0  0  0  0  0  0  0  0
    1.6082   -7.9046    0.0000 C   0  0  0  0  0  0  0  0  0  0  0  0
    1.5984   -6.2527    0.0000 C   0  0  0  0  0  0  0  0  0  0  0  0
    0.8940   -7.4916    0.0000 C   0  0  0  0  0  0  0  0  0  0  0  0
    1.5936   -5.4268    0.0000 N   0  0  0  0  0  0  0  0  0  0  0  0
    2.3078   -8.3127    0.0000 O   0  0  0  0  0  0  0  0  0  0  0  0
    0.1798   -7.9046    0.0000 C   0  0  0  0  0  0  0  0  0  0  0  0
    3.0365   -7.8997    0.0000 C   0  0  0  0  0  0  0  0  0  0  0  0
    1.6082   -8.7354    0.0000 C   0  0  0  0  0  0  0  0  0  0  0  0
    3.0316   -6.2478    0.0000 C   0  0  0  0  0  0  0  0  0  0  0  0
   -0.5344   -7.4916    0.0000 O   0  0  0  0  0  0  0  0  0  0  0  0
    0.8940   -9.1483    0.0000 C   0  0  0  0  0  0  0  0  0  0  0  0
    0.1798   -8.7354    0.0000 C   0  0  0  0  0  0  0  0  0  0  0  0
    0.8794   -5.0138    0.0000 C   0  0  0  0  0  0  0  0  0  0  0  0
    2.3078   -5.0089    0.0000 C   0  0  0  0  0  0  0  0  0  0  0  0
   -1.2486   -7.9046    0.0000 C   0  0  0  0  0  0  0  0  0  0  0  0
    3.7458   -7.4867    0.0000 C   0  0  0  0  0  0  0  0  0  0  0  0
    3.7458   -6.6608    0.0000 C   0  0  0  0  0  0  0  0  0  0  0  0
  2  1  1  0
  3  1  1  0
  2  4  1  0
  5  3  2  0
  6  4  1  0
  1  7  1  0
  8  5  1  0
  9  1  1  0
 10  3  1  0
 11  2  1  0
 12  8  1  0
 13 10  2  0
 14  8  2  0
 15  6  1  0
 16  6  1  0
 17 12  1  0
 18  9  1  0
 19 18  1  0
 11 19  1  0
 13 14  1  0
M  END
> <chembl_id>
CHEMBL1237044

> <chembl_pref_name>
TRAMADOL

$$$$

     RDKit          2D

 20 23  0  0  0  0  0  0  0  0999 V2000
   -8.3859    8.4271    0.0000 C   0  0  0  0  0  0  0  0  0  0  0  0
   -7.5609    8.4271    0.0000 C   0  0  0  0  0  0  0  0  0  0  0  0
   -8.9026    9.0729    0.0000 C   0  0  0  0  0  0  0  0  0  0  0  0
   -7.9734   10.2354    0.0000 O   0  0  0  0  0  0  0  0  0  0  0  0
   -8.7151    9.8771    0.0000 C   0  0  0  0  0  0  0  0  0  0  0  0
   -7.0484    9.0729    0.0000 C   0  0  0  0  0  0  0  0  0  0  0  0
   -7.2359    9.8771    0.0000 C   0  0  0  0  0  0  0  0  0  0  0  0
   -7.9734    7.1604    0.0000 N   0  0  0  0  0  0  0  0  0  0  0  0
   -8.6401    7.6479    0.0000 C   0  0  0  0  0  0  0  0  0  0  0  0
   -7.3109    7.6479    0.0000 C   0  0  0  0  0  0  0  0  0  0  0  0
   -9.7276    8.8729    0.0000 C   0  0  0  0  0  0  0  0  0  0  0  0
   -9.3026   10.4604    0.0000 C   0  0  0  0  0  0  0  0  0  0  0  0
  -10.3109    9.4521    0.0000 C   0  0  0  0  0  0  0  0  0  0  0  0
  -10.0984   10.2479    0.0000 C   0  0  0  0  0  0  0  0  0  0  0  0
  -11.1109    9.2396    0.0000 Cl  0  0  0  0  0  0  0  0  0  0  0  0
   -7.9734    6.3354    0.0000 C   0  0  0  0  0  0  0  0  0  0  0  0
   -6.2609    8.8354    0.0000 C   0  0  0  0  0  0  0  0  0  0  0  0
   -6.6276   10.4396    0.0000 C   0  0  0  0  0  0  0  0  0  0  0  0
   -5.6526    9.3979    0.0000 C   0  0  0  0  0  0  0  0  0  0  0  0
   -5.8359   10.1979    0.0000 C   0  0  0  0  0  0  0  0  0  0  0  0
  2  1  1  0
  1  3  1  0
  4  5  1  0
  5  3  1  0
  2  6  1  0
  7  6  2  0
  8  9  1  0
  1  9  1  0
  2 10  1  0
 11  3  2  0
 12  5  2  0
 13 11  1  0
 14 12  1  0
 15 13  1  0
 16  8  1  0
 17  6  1  0
 18  7  1  0
 19 17  2  0
 20 18  2  0
  8 10  1  0
  7  4  1  0
 14 13  2  0
 19 20  1  0
M  END
> <chembl_id>
CHEMBL3187365

> <chembl_pref_name>
ASENAPINE

$$$$

     RDKit          2D

 19 19  0  0  0  0  0  0  0  0999 V2000
    0.5288   -1.8966    0.0000 C   0  0  0  0  0  0  0  0  0  0  0  0
    1.9372   -1.6465    0.0000 C   0  0  0  0  0  0  0  0  0  0  0  0
   -0.8839   -5.0469    0.0000 N   0  0  0  0  0  0  0  0  0  0  0  0
    2.3665   -4.0843    0.0000 O   0  0  0  0  0  0  0  0  0  0  0  0
   -0.9381   -2.7424    0.0000 C   0  0  0  0  0  0  0  0  0  0  0  0
   -0.1629   -2.4593    0.0000 C   0  0  0  0  0  0  0  0  0  0  0  0
   -1.0796   -3.5552    0.0000 C   0  0  0  0  0  0  0  0  0  0  0  0
    0.4705   -2.9925    0.0000 C   0  0  0  0  0  0  0  0  0  0  0  0
   -0.4505   -4.0843    0.0000 C   0  0  0  0  0  0  0  0  0  0  0  0
    0.6705   -2.7091    0.0000 C   0  0  0  0  0  0  0  0  0  0  0  0
    2.0790   -2.4593    0.0000 C   0  0  0  0  0  0  0  0  0  0  0  0
   -0.1671   -5.4595    0.0000 C   0  0  0  0  0  0  0  0  0  0  0  0
    1.3706   -5.0469    0.0000 C   0  0  0  0  0  0  0  0  0  0  0  0
    1.5914   -3.8051    0.0000 C   0  0  0  0  0  0  0  0  0  0  0  0
    0.3246   -3.8051    0.0000 C   0  0  0  0  0  0  0  0  0  0  0  0
    0.5455   -5.0469    0.0000 C   0  0  0  0  0  0  0  0  0  0  0  0
    1.4456   -2.9925    0.0000 N   0  0  0  0  0  0  0  0  0  0  0  0
    0.9581   -4.3344    0.0000 C   0  0  0  0  0  0  0  0  0  0  0  0
    2.4059   -5.5764    0.0000 Cl  0  0  0  0  0  0  0  0  0  0  0  0
  1 10  1  0
  2 11  1  0
  3 12  1  0
  4 14  2  0
  5  6  1  0
  5  7  2  0
  6  8  2  0
  7  9  1  0
  8 15  1  0
  9 15  2  0
 10 17  1  0
 11 17  1  0
 16 12  1  0
 13 16  1  0
 13 18  1  0
 14 17  1  0
 18 14  1  0
 18 15  1  0
 16 18  1  0
M  END
> <chembl_id>
CHEMBL4297064

> <chembl_pref_name>
MILNACIPRAN HYDROCHLORIDE

$$$$

     RDKit          2D

 14 14  0  0  0  0  0  0  0  0999 V2000
    1.0542    2.4458    0.0000 C   0  0  0  0  0  0  0  0  0  0  0  0
   -0.0583    2.4250    0.0000 O   0  0  0  0  0  0  0  0  0  0  0  0
    1.6292    1.4708    0.0000 C   0  0  0  0  0  0  0  0  0  0  0  0
    1.0667    0.4875    0.0000 C   0  0  0  0  0  0  0  0  0  0  0  0
   -0.0583   -1.4625    0.0000 C   0  0  0  0  0  0  0  0  0  0  0  0
    1.6167    3.4208    0.0000 O   0  0  0  0  0  0  0  0  0  0  0  0
   -0.6125   -2.4417    0.0000 C   0  0  0  0  0  0  0  0  0  0  0  0
   -0.6208   -0.4917    0.0000 C   0  0  0  0  0  0  0  0  0  0  0  0
   -0.0583    0.4875    0.0000 C   0  0  0  0  0  0  0  0  0  0  0  0
    1.6292   -0.4750    0.0000 C   0  0  0  0  0  0  0  0  0  0  0  0
    1.0667   -1.4625    0.0000 C   0  0  0  0  0  0  0  0  0  0  0  0
   -1.7500   -2.4417    0.0000 C   0  0  0  0  0  0  0  0  0  0  0  0
   -1.7375   -3.5875    0.0000 C   0  0  0  0  0  0  0  0  0  0  0  0
   -1.7500   -1.3042    0.0000 C   0  0  0  0  0  0  0  0  0  0  0  0
  2  1  2  0
  3  1  1  0
  4  3  1  0
  5 11  2  0
  6  1  1  0
  7  5  1  0
  8  9  2  0
  9  4  1  0
 10  4  2  0
 11 10  1  0
 12  7  1  0
 13 12  1  0
 14 12  1  0
  5  8  1  0
M  END
> <chembl_id>
CHEMBL341812

> <chembl_pref_name>
IBUFENAC

$$$$

     RDKit          2D

 14 14  0  0  1  0  0  0  0  0999 V2000
    9.0290   -1.0608    0.0000 C   0  0  0  0  0  0  0  0  0  0  0  0
    8.3115   -0.6585    0.0000 C   0  0  0  0  0  0  0  0  0  0  0  0
   10.4542   -1.0366    0.0000 N   0  0  0  0  0  0  0  0  0  0  0  0
   11.1765   -1.4293    0.0000 C   0  0  0  0  0  0  0  0  0  0  0  0
   11.8746   -1.0075    0.0000 C   0  0  0  0  0  0  0  0  0  0  0  0
    9.7513   -1.4584    0.0000 C   0  0  0  0  0  0  0  0  0  0  0  0
   12.5921   -1.4147    0.0000 C   0  0  0  0  0  0  0  0  0  0  0  0
   10.4542   -0.2173    0.0000 C   0  0  0  0  0  0  0  0  0  0  0  0
   11.1765   -2.2582    0.0000 C   0  0  0  0  0  0  0  0  0  0  0  0
   13.3047   -1.0075    0.0000 C   0  0  0  0  0  0  0  0  0  0  0  0
   12.5872   -2.2437    0.0000 C   0  0  0  0  0  0  0  0  0  0  0  0
   13.3192   -2.6363    0.0000 C   0  0  0  0  0  0  0  0  0  0  0  0
   14.0173   -1.3856    0.0000 C   0  0  0  0  0  0  0  0  0  0  0  0
   14.0415   -2.2146    0.0000 C   0  0  0  0  0  0  0  0  0  0  0  0
  2  1  3  0
  3  6  1  0
  4  3  1  0
  5  4  1  0
  6  1  1  0
  7  5  1  0
  8  3  1  0
  4  9  1  1
 10  7  1  0
 11  7  2  0
 12 11  1  0
 13 10  2  0
 14 13  1  0
 14 12  2  0
M  END
> <chembl_id>
CHEMBL972

> <chembl_pref_name>
SELEGILINE

$$$$

     RDKit          2D

  4  3  0  0  0  0  0  0  0  0999 V2000
    0.2250   -0.1167    0.0000 B   0  0  0  0  0  0  0  0  0  0  0  0
    0.6375    1.2708    0.0000 O   0  0  0  0  0  0  0  0  0  0  0  0
   -1.1333   -0.4542    0.0000 O   0  0  0  0  0  0  0  0  0  0  0  0
    1.2417   -1.1375    0.0000 O   0  0  0  0  0  0  0  0  0  0  0  0
  2  1  1  0
  3  1  1  0
  4  1  1  0
M  END
> <chembl_id>
CHEMBL42403

> <chembl_pref_name>
BORIC ACID

$$$$

     RDKit          2D

 13 15  0  0  0  0  0  0  0  0999 V2000
    2.0529    0.8485    0.0000 C   0  0  0  0  0  0  0  0  0  0  0  0
    2.0529    0.0000    0.0000 C   0  0  0  0  0  0  0  0  0  0  0  0
    2.6551    1.5739    0.0000 C   0  0  0  0  0  0  0  0  0  0  0  0
    1.4234   -0.3148    0.0000 C   0  0  0  0  0  0  0  0  0  0  0  0
    1.9571    1.2454    0.0000 C   0  0  0  0  0  0  0  0  0  0  0  0
    1.9571    0.3148    0.0000 C   0  0  0  0  0  0  0  0  0  0  0  0
    3.3667    1.2454    0.0000 C   0  0  0  0  0  0  0  0  0  0  0  0
    3.3667    0.3148    0.0000 C   0  0  0  0  0  0  0  0  0  0  0  0
    2.8603   -0.3148    0.0000 C   0  0  0  0  0  0  0  0  0  0  0  0
    2.7645    0.0137    0.0000 C   0  0  0  0  0  0  0  0  0  0  0  0
    1.1977    0.6373    0.0000 C   0  0  0  0  0  0  0  0  0  0  0  0
    1.1169    1.2946    0.0000 C   0  0  0  0  0  0  0  0  0  0  0  0
    0.6688    0.2388    0.0000 N   0  0  0  0  0  0  0  0  0  0  0  0
  1  2  1  0
  1  3  1  0
  2  4  1  0
  3  5  1  0
  4  6  1  0
  5  6  1  0
  3  7  1  0
  7  8  1  0
  2  9  1  0
  8  9  1  0
  6 10  1  0
  8 10  1  0
  6 11  1  0
 11 12  1  0
 11 13  1  0
M  END
> <chembl_id>
CHEMBL959

> <chembl_pref_name>
RIMANTADINE

$$$$

     RDKit          2D

  6  4  0  0  0  0  0  0  0  0999 V2000
    0.7792   -2.4792    0.0000 Zn  0  0  0  0  0 15  0  0  0  0  0  0
    0.9542   -1.2083    0.0000 S   0  0  0  0  0  0  0  0  0  0  0  0
    1.3042   -0.5833    0.0000 O   0  0  0  0  0  0  0  0  0  0  0  0
    0.5958   -0.5833    0.0000 O   0  0  0  0  0  0  0  0  0  0  0  0
    0.3417   -1.5583    0.0000 O   0  0  0  0  0  0  0  0  0  0  0  0
    1.5667   -1.5583    0.0000 O   0  0  0  0  0  0  0  0  0  0  0  0
  3  2  2  0
  4  2  2  0
  5  2  1  0
  6  2  1  0
M  CHG  3   1   2   5  -1   6  -1
M  END
> <chembl_id>
CHEMBL1200929

> <chembl_pref_name>
ZINC SULFATE

$$$$

     RDKit          2D

 10  9  0  0  1  0  0  0  0  0999 V2000
    4.8375   -4.8042    0.0000 C   0  0  0  0  0  0  0  0  0  0  0  0
    5.4542   -5.1542    0.0000 C   0  0  0  0  0  0  0  0  0  0  0  0
    4.2292   -5.1417    0.0000 N   0  0  0  0  0  0  0  0  0  0  0  0
    3.6125   -4.7667    0.0000 C   0  0  0  0  0  0  0  0  0  0  0  0
    5.4417   -5.8750    0.0000 O   0  0  0  0  0  0  0  0  0  0  0  0
    3.6292   -4.0500    0.0000 O   0  0  0  0  0  0  0  0  0  0  0  0
    6.0667   -4.8167    0.0000 O   0  0  0  0  0  0  0  0  0  0  0  0
    4.2417   -3.7250    0.0000 S   0  0  0  0  0  0  0  0  0  0  0  0
    4.8417   -4.0875    0.0000 C   0  0  0  0  0  0  0  0  0  0  0  0
    2.9917   -5.1042    0.0000 C   0  0  0  0  0  0  0  0  0  0  0  0
  2  1  1  0
  3  1  1  0
  4  3  1  0
  5  2  2  0
  6  4  2  0
  7  2  1  0
  8  9  1  0
  1  9  1  1
 10  4  1  0
M  END
> <chembl_id>
CHEMBL600

> <chembl_pref_name>
ACETYLCYSTEINE

$$$$

     RDKit          2D

 17 18  0  0  0  0  0  0  0  0999 V2000
    5.8292   -5.9375    0.0000 Cl  0  0  0  0  0  0  0  0  0  0  0  0
    4.8375   -4.1167    0.0000 C   0  0  0  0  0  0  0  0  0  0  0  0
    5.5375   -3.9000    0.0000 N   0  0  0  0  0  0  0  0  0  0  0  0
    4.8375   -4.8292    0.0000 N   0  0  0  0  0  0  0  0  0  0  0  0
    3.6125   -4.8292    0.0000 C   0  0  0  0  0  0  0  0  0  0  0  0
    4.2250   -3.7542    0.0000 N   0  0  0  0  0  0  0  0  0  0  0  0
    3.6125   -4.1167    0.0000 C   0  0  0  0  0  0  0  0  0  0  0  0
    4.2250   -5.1875    0.0000 C   0  0  0  0  0  0  0  0  0  0  0  0
    5.9250   -4.4750    0.0000 C   0  0  0  0  0  0  0  0  0  0  0  0
    2.9917   -5.1875    0.0000 C   0  0  0  0  0  0  0  0  0  0  0  0
    5.5375   -5.0417    0.0000 C   0  0  0  0  0  0  0  0  0  0  0  0
    2.3792   -4.8292    0.0000 C   0  0  0  0  0  0  0  0  0  0  0  0
    2.9917   -3.7542    0.0000 C   0  0  0  0  0  0  0  0  0  0  0  0
    6.6292   -4.4750    0.0000 O   0  0  0  0  0  0  0  0  0  0  0  0
    2.3792   -4.1167    0.0000 C   0  0  0  0  0  0  0  0  0  0  0  0
    2.9917   -5.8917    0.0000 Cl  0  0  0  0  0  0  0  0  0  0  0  0
    1.7625   -5.1875    0.0000 Cl  0  0  0  0  0  0  0  0  0  0  0  0
  3  2  1  0
  4  2  1  0
  5  7  2  0
  6  2  2  0
  7  6  1  0
  8  4  1  0
  9  3  1  0
 10  5  1  0
 11  4  1  0
 12 15  1  0
 13  7  1  0
 14  9  2  0
 15 13  2  0
 16 10  1  0
 17 12  1  0
  9 11  1  0
  5  8  1  0
 10 12  2  0
M  END
> <chembl_id>
CHEMBL1200759

> <chembl_pref_name>
ANAGRELIDE HYDROCHLORIDE

$$$$

     RDKit          2D

 10 10  0  0  0  0  0  0  0  0999 V2000
    4.6917   -5.1000    0.0000 N   0  0  0  0  0  0  0  0  0  0  0  0
    4.4750   -4.4292    0.0000 C   0  0  0  0  0  0  0  0  0  0  0  0
    5.3917   -5.1000    0.0000 C   0  0  0  0  0  0  0  0  0  0  0  0
    5.0417   -4.0042    0.0000 O   0  0  0  0  0  0  0  0  0  0  0  0
    5.6167   -4.4292    0.0000 C   0  0  0  0  0  0  0  0  0  0  0  0
    3.7917   -4.2042    0.0000 O   0  0  0  0  0  0  0  0  0  0  0  0
    5.8167   -5.6750    0.0000 O   0  0  0  0  0  0  0  0  0  0  0  0
    4.2750   -5.6750    0.0000 C   0  0  0  0  0  0  0  0  0  0  0  0
    6.2667   -4.7167    0.0000 C   0  0  0  0  0  0  0  0  0  0  0  0
    5.9750   -3.8125    0.0000 C   0  0  0  0  0  0  0  0  0  0  0  0
  2  1  1  0
  3  1  1  0
  4  2  1  0
  5  3  1  0
  6  2  2  0
  7  3  2  0
  8  1  1  0
  9  5  1  0
 10  5  1  0
  4  5  1  0
M  END
> <chembl_id>
CHEMBL695

> <chembl_pref_name>
TRIMETHADIONE

$$$$

     RDKit          2D

  9  8  0  0  0  0  0  0  0  0999 V2000
    3.5375   -4.6500    0.0000 C   0  0  0  0  0  0  0  0  0  0  0  0
    3.5375   -5.3667    0.0000 O   0  0  0  0  0  0  0  0  0  0  0  0
    2.9167   -4.2917    0.0000 O   0  0  0  0  0  0  0  0  0  0  0  0
    7.2292   -4.6417    0.0000 N   0  0  0  0  0  0  0  0  0  0  0  0
    4.1542   -4.2917    0.0000 C   0  0  0  0  0  0  0  0  0  0  0  0
    6.6042   -4.2875    0.0000 C   0  0  0  0  0  0  0  0  0  0  0  0
    4.7667   -4.6417    0.0000 C   0  0  0  0  0  0  0  0  0  0  0  0
    5.9917   -4.6417    0.0000 C   0  0  0  0  0  0  0  0  0  0  0  0
    5.3792   -4.2875    0.0000 C   0  0  0  0  0  0  0  0  0  0  0  0
  2  1  2  0
  3  1  1  0
  4  6  1  0
  5  1  1  0
  6  8  1  0
  7  5  1  0
  8  9  1  0
  9  7  1  0
M  END
> <chembl_id>
CHEMBL1046

> <chembl_pref_name>
AMINOCAPROIC ACID

$$$$

     RDKit          2D

 19 19  0  0  0  0  0  0  0  0999 V2000
    5.4544    0.0000    0.0000 Cl  0  0  0  0  0  0  0  0  0  0  0  0
    0.3572   -0.2063    0.0000 N   0  0  0  0  0  0  0  0  0  0  0  0
   -0.3572    0.2062    0.0000 C   0  0  0  0  0  0  0  0  0  0  0  0
    1.0717    0.2062    0.0000 C   0  0  0  0  0  0  0  0  0  0  0  0
   -1.0717   -0.2063    0.0000 C   0  0  0  0  0  0  0  0  0  0  0  0
    1.7862   -0.2063    0.0000 C   0  0  0  0  0  0  0  0  0  0  0  0
   -1.7862    0.2062    0.0000 C   0  0  0  0  0  0  0  0  0  0  0  0
    0.3572   -1.0313    0.0000 C   0  0  0  0  0  0  0  0  0  0  0  0
   -0.3572    1.0312    0.0000 C   0  0  0  0  0  0  0  0  0  0  0  0
    1.7862   -1.0313    0.0000 C   0  0  0  0  0  0  0  0  0  0  0  0
   -1.7862    1.0313    0.0000 C   0  0  0  0  0  0  0  0  0  0  0  0
   -2.5006   -0.2063    0.0000 C   0  0  0  0  0  0  0  0  0  0  0  0
    2.5006    0.2063    0.0000 C   0  0  0  0  0  0  0  0  0  0  0  0
    2.5006   -1.4438    0.0000 C   0  0  0  0  0  0  0  0  0  0  0  0
   -3.2151    0.2062    0.0000 C   0  0  0  0  0  0  0  0  0  0  0  0
   -2.5006    1.4438    0.0000 C   0  0  0  0  0  0  0  0  0  0  0  0
    3.2151   -0.2062    0.0000 C   0  0  0  0  0  0  0  0  0  0  0  0
    3.2151   -1.0312    0.0000 C   0  0  0  0  0  0  0  0  0  0  0  0
   -3.2151    1.0312    0.0000 C   0  0  0  0  0  0  0  0  0  0  0  0
  3  2  1  0
  4  2  1  0
  5  3  1  0
  6  4  1  0
  7  5  1  0
  8  2  1  0
  3  9  1  6
 10  6  2  0
 11  7  2  0
 12  7  1  0
 13  6  1  0
 14 10  1  0
 15 12  2  0
 16 11  1  0
 17 13  2  0
 18 14  2  0
 19 15  1  0
 17 18  1  0
 16 19  2  0
M  END
> <chembl_id>
CHEMBL3544906

> <chembl_pref_name>
BENZPHETAMINE HYDROCHLORIDE

$$$$

     RDKit          2D

  9  9  0  0  0  0  0  0  0  0999 V2000
    4.2500   -5.1417    0.0000 C   0  0  0  0  0  0  0  0  0  0  0  0
    5.4792   -4.4417    0.0000 C   0  0  0  0  0  0  0  0  0  0  0  0
    4.2500   -4.4417    0.0000 C   0  0  0  0  0  0  0  0  0  0  0  0
    4.8792   -5.5042    0.0000 C   0  0  0  0  0  0  0  0  0  0  0  0
    4.8542   -4.0792    0.0000 C   0  0  0  0  0  0  0  0  0  0  0  0
    5.4792   -5.1417    0.0000 C   0  0  0  0  0  0  0  0  0  0  0  0
    3.6375   -5.5125    0.0000 O   0  0  0  0  0  0  0  0  0  0  0  0
    6.1000   -4.0792    0.0000 O   0  0  0  0  0  0  0  0  0  0  0  0
    6.7125   -4.4167    0.0000 C   0  0  0  0  0  0  0  0  0  0  0  0
  2  6  1  0
  3  1  2  0
  4  1  1  0
  5  3  1  0
  6  4  2  0
  7  1  1  0
  8  2  1  0
  9  8  1  0
  2  5  2  0
M  END
> <chembl_id>
CHEMBL544

> <chembl_pref_name>
MEQUINOL

$$$$

     RDKit          2D

 19 19  0  0  0  0  0  0  0  0999 V2000
    8.8792   -4.6542    0.0000 Cl  0  0  0  0  0  0  0  0  0  0  0  0
    4.9917   -4.2417    0.0000 C   0  0  0  0  0  0  0  0  0  0  0  0
    3.7750   -4.2417    0.0000 N   0  0  0  0  0  0  0  0  0  0  0  0
    4.3792   -4.6042    0.0000 C   0  0  0  0  0  0  0  0  0  0  0  0
    5.6125   -4.6167    0.0000 C   0  0  0  0  0  0  0  0  0  0  0  0
    4.9917   -3.5375    0.0000 O   0  0  0  0  0  0  0  0  0  0  0  0
    5.6292   -5.3375    0.0000 C   0  0  0  0  0  0  0  0  0  0  0  0
    6.2250   -4.2542    0.0000 C   0  0  0  0  0  0  0  0  0  0  0  0
    6.2375   -5.6792    0.0000 C   0  0  0  0  0  0  0  0  0  0  0  0
    6.8500   -4.6167    0.0000 C   0  0  0  0  0  0  0  0  0  0  0  0
    6.8500   -5.3167    0.0000 C   0  0  0  0  0  0  0  0  0  0  0  0
    3.0917   -4.4625    0.0000 C   0  0  0  0  0  0  0  0  0  0  0  0
    3.7750   -3.5375    0.0000 C   0  0  0  0  0  0  0  0  0  0  0  0
    4.3792   -5.3042    0.0000 C   0  0  0  0  0  0  0  0  0  0  0  0
    7.4542   -5.6792    0.0000 C   0  0  0  0  0  0  0  0  0  0  0  0
    3.7750   -5.6667    0.0000 C   0  0  0  0  0  0  0  0  0  0  0  0
    3.1042   -3.3167    0.0000 C   0  0  0  0  0  0  0  0  0  0  0  0
    2.6917   -3.8792    0.0000 C   0  0  0  0  0  0  0  0  0  0  0  0
    3.7750   -6.3750    0.0000 C   0  0  0  0  0  0  0  0  0  0  0  0
  3  4  1  0
  4  2  1  0
  5  2  1  0
  6  2  2  0
  7  5  2  0
  8  5  1  0
  9  7  1  0
 10  8  2  0
 11 10  1  0
 12  3  1  0
 13  3  1  0
 14  4  1  0
 15 11  1  0
 16 14  1  0
 17 13  1  0
 18 12  1  0
 19 16  1  0
  9 11  2  0
 18 17  1  0
M  END
> <chembl_id>
CHEMBL2104793

> <chembl_pref_name>
PYROVALERONE HYDROCHLORIDE

$$$$

     RDKit          2D

 19 20  0  0  0  0  0  0  0  0999 V2000
    2.7292   -5.0750    0.0000 C   0  0  0  0  0  0  0  0  0  0  0  0
    2.7292   -4.3625    0.0000 C   0  0  0  0  0  0  0  0  0  0  0  0
    1.4875   -5.1042    0.0000 N   0  0  0  0  0  0  0  0  0  0  0  0
    3.3417   -5.4417    0.0000 C   0  0  0  0  0  0  0  0  0  0  0  0
    2.1000   -5.4500    0.0000 C   0  0  0  0  0  0  0  0  0  0  0  0
    3.3542   -6.1542    0.0000 C   0  0  0  0  0  0  0  0  0  0  0  0
    3.9542   -5.0750    0.0000 C   0  0  0  0  0  0  0  0  0  0  0  0
    2.1125   -4.0167    0.0000 C   0  0  0  0  0  0  0  0  0  0  0  0
    2.1000   -3.3042    0.0000 N   0  0  0  0  0  0  0  0  0  0  0  0
    4.5792   -6.1417    0.0000 C   0  0  0  0  0  0  0  0  0  0  0  0
    4.5667   -5.4292    0.0000 C   0  0  0  0  0  0  0  0  0  0  0  0
    3.9750   -6.4917    0.0000 C   0  0  0  0  0  0  0  0  0  0  0  0
    5.2042   -6.5042    0.0000 Cl  0  0  0  0  0  0  0  0  0  0  0  0
    0.8792   -5.4667    0.0000 C   0  0  0  0  0  0  0  0  0  0  0  0
    2.1000   -6.1667    0.0000 C   0  0  0  0  0  0  0  0  0  0  0  0
    2.7042   -2.9417    0.0000 C   0  0  0  0  0  0  0  0  0  0  0  0
    1.4875   -2.9667    0.0000 C   0  0  0  0  0  0  0  0  0  0  0  0
    0.8792   -6.1917    0.0000 C   0  0  0  0  0  0  0  0  0  0  0  0
    1.5000   -6.5292    0.0000 C   0  0  0  0  0  0  0  0  0  0  0  0
  2  1  1  0
  3  5  2  0
  4  1  1  0
  5  1  1  0
  6  4  2  0
  7  4  1  0
  8  2  1  0
  9  8  1  0
 10 11  1  0
 11  7  2  0
 12  6  1  0
 13 10  1  0
 14  3  1  0
 15  5  1  0
 16  9  1  0
 17  9  1  0
 18 19  1  0
 19 15  2  0
 10 12  2  0
 18 14  2  0
M  END
> <chembl_id>
CHEMBL505

> <chembl_pref_name>
CHLORPHENIRAMINE

$$$$

     RDKit          2D

 11 11  0  0  0  0  0  0  0  0999 V2000
    6.1836   -7.1679    0.0000 O   0  0  0  0  0  0  0  0  0  0  0  0
    6.1836   -5.3017    0.0000 C   0  0  0  0  0  0  0  0  0  0  0  0
    6.9925   -6.3688    0.0000 N   0  0  0  0  0  0  0  0  0  0  0  0
    6.1982   -6.1203    0.0000 C   0  0  0  0  0  0  0  0  0  0  0  0
    5.4673   -4.8924    0.0000 C   0  0  0  0  0  0  0  0  0  0  0  0
    6.9730   -5.0336    0.0000 N   0  0  0  0  0  0  0  0  0  0  0  0
    5.4868   -6.5442    0.0000 N   0  0  0  0  0  0  0  0  0  0  0  0
    7.4700   -5.6964    0.0000 C   0  0  0  0  0  0  0  0  0  0  0  0
    4.7510   -5.3163    0.0000 N   0  0  0  0  0  0  0  0  0  0  0  0
    4.7559   -6.1495    0.0000 C   0  0  0  0  0  0  0  0  0  0  0  0
    5.4527   -4.0591    0.0000 S   0  0  0  0  0  0  0  0  0  0  0  0
  3  4  1  0
  4  2  2  0
  5  2  1  0
  6  2  1  0
  7  4  1  0
  8  6  1  0
  9  5  1  0
 10  9  1  0
 11  5  2  0
  8  3  2  0
 10  7  2  0
M  END
> <chembl_id>
CHEMBL1200751

> <chembl_pref_name>
MERCAPTOPURINE

$$$$

     RDKit          2D

 22 25  0  0  0  0  0  0  0  0999 V2000
    0.1417   -1.1958    0.0000 C   0  0  0  0  0  0  0  0  0  0  0  0
    0.1417   -1.9042    0.0000 C   0  0  0  0  0  0  0  0  0  0  0  0
   -0.5333   -2.1292    0.0000 N   0  0  0  0  0  0  0  0  0  0  0  0
    0.7583   -0.8375    0.0000 C   0  0  0  0  0  0  0  0  0  0  0  0
   -0.5375   -0.9792    0.0000 C   0  0  0  0  0  0  0  0  0  0  0  0
    1.3750   -1.1917    0.0000 N   0  0  0  0  0  0  0  0  0  0  0  0
   -0.9583   -1.5542    0.0000 C   0  0  0  0  0  0  0  0  0  0  0  0
    2.6083   -1.1958    0.0000 C   0  0  0  0  0  0  0  0  0  0  0  0
    3.1833   -0.7708    0.0000 N   0  0  0  0  0  0  0  0  0  0  0  0
    0.7583   -2.2625    0.0000 C   0  0  0  0  0  0  0  0  0  0  0  0
    1.9958   -0.8375    0.0000 C   0  0  0  0  0  0  0  0  0  0  0  0
    2.8292   -1.8708    0.0000 C   0  0  0  0  0  0  0  0  0  0  0  0
    3.7625   -1.1958    0.0000 C   0  0  0  0  0  0  0  0  0  0  0  0
    3.5417   -1.8708    0.0000 N   0  0  0  0  0  0  0  0  0  0  0  0
    1.3750   -1.9042    0.0000 C   0  0  0  0  0  0  0  0  0  0  0  0
    0.7625   -0.1250    0.0000 O   0  0  0  0  0  0  0  0  0  0  0  0
   -0.7500   -2.8083    0.0000 C   0  0  0  0  0  0  0  0  0  0  0  0
   -0.8250   -0.3333    0.0000 C   0  0  0  0  0  0  0  0  0  0  0  0
   -1.6583   -1.4833    0.0000 C   0  0  0  0  0  0  0  0  0  0  0  0
    2.4667   -2.4792    0.0000 C   0  0  0  0  0  0  0  0  0  0  0  0
   -1.5333   -0.2583    0.0000 C   0  0  0  0  0  0  0  0  0  0  0  0
   -1.9500   -0.8417    0.0000 C   0  0  0  0  0  0  0  0  0  0  0  0
  2  1  2  0
  3  2  1  0
  4  1  1  0
  5  1  1  0
  6  4  1  0
  7  5  2  0
  8 11  1  0
  9  8  1  0
 10  2  1  0
 11  6  1  0
 12  8  2  0
 13  9  2  0
 14 12  1  0
 15 10  1  0
 16  4  2  0
 17  3  1  0
 18  5  1  0
 19  7  1  0
 20 12  1  0
 21 18  2  0
 22 21  1  0
  3  7  1  0
  6 15  1  0
 19 22  2  0
 13 14  1  0
M  END
> <chembl_id>
CHEMBL1110

> <chembl_pref_name>
ALOSETRON

$$$$

     RDKit          2D

 17 18  0  0  0  0  0  0  0  0999 V2000
   -1.1250   -7.1417    0.0000 S   0  0  0  0  0  0  0  0  0  0  0  0
    1.3208   -7.1417    0.0000 S   0  0  0  0  0  0  0  0  0  0  0  0
   -0.5083   -7.5000    0.0000 C   0  0  0  0  0  0  0  0  0  0  0  0
    0.7125   -7.5000    0.0000 C   0  0  0  0  0  0  0  0  0  0  0  0
   -1.7458   -7.5000    0.0000 N   0  0  0  0  0  0  0  0  0  0  0  0
    0.1000   -7.1417    0.0000 C   0  0  0  0  0  0  0  0  0  0  0  0
   -0.5083   -8.2042    0.0000 C   0  0  0  0  0  0  0  0  0  0  0  0
    0.7167   -8.2000    0.0000 C   0  0  0  0  0  0  0  0  0  0  0  0
    0.1000   -8.5625    0.0000 C   0  0  0  0  0  0  0  0  0  0  0  0
   -1.4833   -6.5292    0.0000 O   0  0  0  0  0  0  0  0  0  0  0  0
   -0.7750   -6.5292    0.0000 O   0  0  0  0  0  0  0  0  0  0  0  0
   -1.1250   -8.5625    0.0000 N   0  0  0  0  0  0  0  0  0  0  0  0
   -1.7458   -8.2000    0.0000 C   0  0  0  0  0  0  0  0  0  0  0  0
    1.6667   -6.5250    0.0000 O   0  0  0  0  0  0  0  0  0  0  0  0
    0.9625   -6.5250    0.0000 O   0  0  0  0  0  0  0  0  0  0  0  0
    1.9375   -7.4917    0.0000 N   0  0  0  0  0  0  0  0  0  0  0  0
    1.3375   -8.5625    0.0000 Cl  0  0  0  0  0  0  0  0  0  0  0  0
  2  4  1  0
  3  1  1  0
  4  6  2  0
  5  1  1  0
  6  3  1  0
  7  3  2  0
  8  9  2  0
  9  7  1  0
 10  1  2  0
 11  1  2  0
 12 13  1  0
 13  5  1  0
 14  2  2  0
 15  2  2  0
 16  2  1  0
 17  8  1  0
  7 12  1  0
  4  8  1  0
M  END
> <chembl_id>
CHEMBL435

> <chembl_pref_name>
HYDROCHLOROTHIAZIDE

$$$$

     RDKit          2D

  9  9  0  0  0  0  0  0  0  0999 V2000
    0.8737   -0.5042    0.0000 N   0  0  0  0  0  0  0  0  0  0  0  0
    0.1592   -0.9167    0.0000 C   0  0  0  0  0  0  0  0  0  0  0  0
   -0.5553   -0.5042    0.0000 N   0  0  0  0  0  0  0  0  0  0  0  0
   -0.5553    0.3208    0.0000 C   0  0  0  0  0  0  0  0  0  0  0  0
    0.1592    0.7333    0.0000 C   0  0  0  0  0  0  0  0  0  0  0  0
    0.8737    0.3208    0.0000 C   0  0  0  0  0  0  0  0  0  0  0  0
    0.1592   -1.7417    0.0000 O   0  0  0  0  0  0  0  0  0  0  0  0
   -1.2698    0.7333    0.0000 O   0  0  0  0  0  0  0  0  0  0  0  0
    0.1592    1.5583    0.0000 F   0  0  0  0  0  0  0  0  0  0  0  0
  2  1  1  0
  6  1  1  0
  2  3  1  0
  2  7  2  0
  4  3  1  0
  4  5  1  0
  4  8  2  0
  5  6  2  0
  5  9  1  0
M  END
> <chembl_id>
CHEMBL185

> <chembl_pref_name>
FLUOROURACIL

$$$$

     RDKit          2D

 17 18  0  0  0  0  0  0  0  0999 V2000
   -1.4208    0.0375    0.0000 C   0  0  0  0  0  0  0  0  0  0  0  0
   -2.3250   -0.6250    0.0000 N   0  0  0  0  0  0  0  0  0  0  0  0
   -3.2375    0.0208    0.0000 C   0  0  0  0  0  0  0  0  0  0  0  0
   -1.7375    1.1000    0.0000 C   0  0  0  0  0  0  0  0  0  0  0  0
   -2.8833    1.1083    0.0000 N   0  0  0  0  0  0  0  0  0  0  0  0
   -0.5208   -0.5875    0.0000 C   0  0  0  0  0  0  0  0  0  0  0  0
    0.4625    0.0083    0.0000 C   0  0  0  0  0  0  0  0  0  0  0  0
   -4.2083   -0.5500    0.0000 O   0  0  0  0  0  0  0  0  0  0  0  0
   -0.5458   -1.7917    0.0000 O   0  0  0  0  0  0  0  0  0  0  0  0
    0.4375    1.1708    0.0000 C   0  0  0  0  0  0  0  0  0  0  0  0
    1.4125   -0.5542    0.0000 C   0  0  0  0  0  0  0  0  0  0  0  0
    2.4125    1.1958    0.0000 C   0  0  0  0  0  0  0  0  0  0  0  0
    3.3542    1.7875    0.0000 S   0  0  0  0  0  0  0  0  0  0  0  0
    2.4167    0.0500    0.0000 C   0  0  0  0  0  0  0  0  0  0  0  0
    1.4000    1.7500    0.0000 C   0  0  0  0  0  0  0  0  0  0  0  0
   -1.0625    2.0083    0.0000 C   0  0  0  0  0  0  0  0  0  0  0  0
    4.3417    1.2583    0.0000 C   0  0  0  0  0  0  0  0  0  0  0  0
  2  1  1  0
  3  2  1  0
  4  1  2  0
  5  4  1  0
  6  1  1  0
  7  6  1  0
  8  3  2  0
  9  6  2  0
 10  7  2  0
 11  7  1  0
 12 14  1  0
 13 12  1  0
 14 11  2  0
 15 10  1  0
 16  4  1  0
 17 13  1  0
  5  3  1  0
 15 12  2  0
M  END
> <chembl_id>
CHEMBL249856

> <chembl_pref_name>
ENOXIMONE

$$$$

     RDKit          2D

 15 14  0  0  0  0  0  0  0  0999 V2000
    3.0042   -4.6875    0.0000 C   0  0  0  0  0  0  0  0  0  0  0  0
   -0.6708   -4.6875    0.0000 C   0  0  0  0  0  0  0  0  0  0  0  0
    1.1667   -4.3292    0.0000 C   0  0  0  0  0  0  0  0  0  0  0  0
    3.0042   -5.3917    0.0000 O   0  0  0  0  0  0  0  0  0  0  0  0
   -0.6708   -5.3917    0.0000 O   0  0  0  0  0  0  0  0  0  0  0  0
    2.3917   -4.3292    0.0000 O   0  0  0  0  0  0  0  0  0  0  0  0
   -0.0583   -4.3292    0.0000 O   0  0  0  0  0  0  0  0  0  0  0  0
   -1.2833   -4.3292    0.0000 N   0  0  0  0  0  0  0  0  0  0  0  0
    3.6250   -4.3292    0.0000 N   0  0  0  0  0  0  0  0  0  0  0  0
    0.5542   -4.6875    0.0000 C   0  0  0  0  0  0  0  0  0  0  0  0
    1.7792   -4.6875    0.0000 C   0  0  0  0  0  0  0  0  0  0  0  0
    0.8125   -3.7125    0.0000 C   0  0  0  0  0  0  0  0  0  0  0  0
    1.5167   -3.7125    0.0000 C   0  0  0  0  0  0  0  0  0  0  0  0
    1.1625   -3.0917    0.0000 C   0  0  0  0  0  0  0  0  0  0  0  0
    0.8042   -2.4792    0.0000 C   0  0  0  0  0  0  0  0  0  0  0  0
  2  7  1  0
  3 11  1  0
  4  1  2  0
  5  2  2  0
  6  1  1  0
  7 10  1  0
  8  2  1  0
  9  1  1  0
 10  3  1  0
 11  6  1  0
 12  3  1  0
 13  3  1  0
 14 12  1  0
 15 14  1  0
M  END
> <chembl_id>
CHEMBL979

> <chembl_pref_name>
MEPROBAMATE

$$$$

     RDKit          2D

 13 12  0  0  0  0  0  0  0  0999 V2000
   -0.0458    0.1208    0.0000 C   0  0  0  0  0  0  0  0  0  0  0  0
   -0.8708   -1.2667    0.0000 P   0  0  0  0  0  0  0  0  0  0  0  0
   -0.9958    1.4458    0.0000 P   0  0  0  0  0  0  0  0  0  0  0  0
    0.8750    0.2708    0.0000 C   0  0  0  0  0  0  0  0  0  0  0  0
    0.5250   -2.0917    0.0000 O   0  0  0  0  0  0  0  0  0  0  0  0
    0.3250    2.3833    0.0000 O   0  0  0  0  0  0  0  0  0  0  0  0
   -1.4250   -0.3125    0.0000 O   0  0  0  0  0  0  0  0  0  0  0  0
   -2.2583   -0.4417    0.0000 O   0  0  0  0  0  0  0  0  0  0  0  0
   -1.9375    2.7583    0.0000 O   0  0  0  0  0  0  0  0  0  0  0  0
   -2.3083    0.4958    0.0000 O   0  0  0  0  0  0  0  0  0  0  0  0
   -1.6958   -2.6542    0.0000 O   0  0  0  0  0  0  0  0  0  0  0  0
    2.3792   -0.3042    0.0000 N   0  0  0  0  0  0  0  0  0  0  0  0
    1.4542   -0.4542    0.0000 C   0  0  0  0  0  0  0  0  0  0  0  0
  2  1  1  0
  3  1  1  0
  4  1  1  0
  5  2  2  0
  6  3  2  0
  7  1  1  0
  8  2  1  0
  9  3  1  0
 10  3  1  0
 11  2  1  0
 12 13  1  0
 13  4  1  0
M  END
> <chembl_id>
CHEMBL834

> <chembl_pref_name>
PAMIDRONIC ACID

$$$$

     RDKit          2D

  8  7  0  0  0  0  0  0  0  0999 V2000
    1.8375   -0.5875    0.0000 C   0  0  0  0  0  0  0  0  0  0  0  0
   -1.7625    0.6625    0.0000 C   0  0  0  0  0  0  0  0  0  0  0  0
   -0.3208    0.6625    0.0000 C   0  0  0  0  0  0  0  0  0  0  0  0
    0.3917   -0.5875    0.0000 C   0  0  0  0  0  0  0  0  0  0  0  0
    2.5375    0.6625    0.0000 O   0  0  0  0  0  0  0  0  0  0  0  0
   -2.4625   -0.5875    0.0000 O   0  0  0  0  0  0  0  0  0  0  0  0
   -2.4750    1.9000    0.0000 O   0  0  0  0  0  0  0  0  0  0  0  0
    2.5500   -1.8000    0.0000 O   0  0  0  0  0  0  0  0  0  0  0  0
  2  3  1  0
  3  4  2  0
  4  1  1  0
  5  1  2  0
  6  2  2  0
  7  2  1  0
  8  1  1  0
M  END
> <chembl_id>
CHEMBL503160

> <chembl_pref_name>
FUMARIC ACID

$$$$

     RDKit          2D

 15 15  0  0  0  0  0  0  0  0999 V2000
    5.3678   -0.5875    0.0000 C   0  0  0  0  0  0  0  0  0  0  0  0
    5.3678   -1.4125    0.0000 C   0  0  0  0  0  0  0  0  0  0  0  0
    4.6533   -1.8250    0.0000 C   0  0  0  0  0  0  0  0  0  0  0  0
    3.9388   -1.4125    0.0000 C   0  0  0  0  0  0  0  0  0  0  0  0
    3.9388   -0.5875    0.0000 C   0  0  0  0  0  0  0  0  0  0  0  0
    4.6533   -0.1750    0.0000 C   0  0  0  0  0  0  0  0  0  0  0  0
    3.2244   -1.8250    0.0000 O   0  0  0  0  0  0  0  0  0  0  0  0
    4.6533   -2.6500    0.0000 O   0  0  0  0  0  0  0  0  0  0  0  0
    6.0822   -0.1750    0.0000 C   0  0  0  0  0  0  0  0  0  0  0  0
    6.7967   -0.5875    0.0000 C   0  0  0  0  0  0  0  0  0  0  0  0
    6.4947    0.5395    0.0000 O   0  0  0  0  0  0  0  0  0  0  0  0
    7.2092   -1.3020    0.0000 N   0  0  0  0  0  0  0  0  0  0  0  0
    7.2711    0.0874    0.0000 C   0  0  0  0  0  0  0  0  0  0  0  0
    8.0928    0.0141    0.0000 O   0  0  0  0  0  0  0  0  0  0  0  0
    6.9238    0.8358    0.0000 O   0  0  0  0  0  0  0  0  0  0  0  0
  3  4  2  0
  4  5  1  0
  5  6  2  0
  6  1  1  0
  4  7  1  0
  3  8  1  0
  1  9  1  0
  9 10  1  0
  9 11  1  1
 10 12  1  1
 10 13  1  0
  1  2  2  0
 13 14  2  0
  2  3  1  0
 13 15  1  0
M  END
> <chembl_id>
CHEMBL2103827

> <chembl_pref_name>
DROXIDOPA

$$$$

     RDKit          2D

 18 19  0  0  0  0  0  0  0  0999 V2000
   13.1292   -0.0167    0.0000 S   0  0  0  0  0  0  0  0  0  0  0  0
   13.7417    0.3333    0.0000 N   0  0  0  0  0  0  0  0  0  0  0  0
   14.3625   -0.0250    0.0000 C   0  0  0  0  0  0  0  0  0  0  0  0
   14.9792    0.3167    0.0000 N   0  0  0  0  0  0  0  0  0  0  0  0
   12.5125    0.3375    0.0000 C   0  0  0  0  0  0  0  0  0  0  0  0
   13.4792   -0.6375    0.0000 O   0  0  0  0  0  0  0  0  0  0  0  0
   12.7667   -0.6375    0.0000 O   0  0  0  0  0  0  0  0  0  0  0  0
   14.3583   -0.7458    0.0000 N   0  0  0  0  0  0  0  0  0  0  0  0
   12.5167    1.0500    0.0000 C   0  0  0  0  0  0  0  0  0  0  0  0
   11.9000   -0.0167    0.0000 C   0  0  0  0  0  0  0  0  0  0  0  0
   15.5958   -0.0458    0.0000 C   0  0  0  0  0  0  0  0  0  0  0  0
   14.9792   -1.1000    0.0000 C   0  0  0  0  0  0  0  0  0  0  0  0
   11.2792    1.0500    0.0000 C   0  0  0  0  0  0  0  0  0  0  0  0
   10.6667    1.4000    0.0000 N   0  0  0  0  0  0  0  0  0  0  0  0
   15.5958   -0.7458    0.0000 C   0  0  0  0  0  0  0  0  0  0  0  0
   11.9000    1.4083    0.0000 C   0  0  0  0  0  0  0  0  0  0  0  0
   11.2792    0.3333    0.0000 C   0  0  0  0  0  0  0  0  0  0  0  0
   16.2125    0.3167    0.0000 C   0  0  0  0  0  0  0  0  0  0  0  0
  2  1  1  0
  3  2  1  0
  4  3  1  0
  5  1  1  0
  6  1  2  0
  7  1  2  0
  8  3  2  0
  9  5  2  0
 10  5  1  0
 11  4  2  0
 12  8  1  0
 13 17  1  0
 14 13  1  0
 15 12  2  0
 16  9  1  0
 17 10  2  0
 18 11  1  0
 13 16  2  0
 15 11  1  0
M  END
> <chembl_id>
CHEMBL438

> <chembl_pref_name>
SULFAMERAZINE

$$$$

     RDKit          2D

 21 24  0  0  0  0  0  0  0  0999 V2000
    1.0006    0.6652    0.0000 C   0  0  0  0  0  0  0  0  0  0  0  0
    0.3735    3.3618    0.0000 C   0  0  0  0  0  0  0  0  0  0  0  0
    4.6605    3.3612    0.0000 C   0  0  0  0  0  0  0  0  0  0  0  0
    0.3734    2.5367    0.0000 C   0  0  0  0  0  0  0  0  0  0  0  0
    4.6604    2.5363    0.0000 C   0  0  0  0  0  0  0  0  0  0  0  0
    2.0113    1.2487    0.0000 C   0  0  0  0  0  0  0  0  0  0  0  0
    1.0880    3.7742    0.0000 C   0  0  0  0  0  0  0  0  0  0  0  0
    3.9460    3.7738    0.0000 C   0  0  0  0  0  0  0  0  0  0  0  0
    1.0879    2.1241    0.0000 C   0  0  0  0  0  0  0  0  0  0  0  0
    3.9459    2.1238    0.0000 C   0  0  0  0  0  0  0  0  0  0  0  0
    2.8087    3.2687    0.0000 C   0  0  0  0  0  0  0  0  0  0  0  0
    2.5167    1.5404    0.0000 C   0  0  0  0  0  0  0  0  0  0  0  0
    2.8086    2.6292    0.0000 C   0  0  0  0  0  0  0  0  0  0  0  0
    2.0113    0.6652    0.0000 C   0  0  0  0  0  0  0  0  0  0  0  0
    2.5170    3.7741    0.0000 C   0  0  0  0  0  0  0  0  0  0  0  0
    1.8025    3.3615    0.0000 C   0  0  0  0  0  0  0  0  0  0  0  0
    3.2315    3.3614    0.0000 C   0  0  0  0  0  0  0  0  0  0  0  0
    1.8024    2.5366    0.0000 C   0  0  0  0  0  0  0  0  0  0  0  0
    3.2314    2.5364    0.0000 C   0  0  0  0  0  0  0  0  0  0  0  0
    2.5168    2.1239    0.0000 C   0  0  0  0  0  0  0  0  0  0  0  0
    1.5059    0.3734    0.0000 N   0  0  0  0  0  0  0  0  0  0  0  0
  1 21  1  0
  2  4  2  0
  2  7  1  0
  3  5  2  0
  3  8  1  0
  4  9  1  0
  5 10  1  0
  6 12  1  0
  6 14  1  0
  7 16  2  0
  8 17  2  0
  9 18  2  0
 10 19  2  0
 11 13  1  0
 11 15  1  0
 12 20  1  0
 13 20  1  0
 14 21  1  0
 15 16  1  0
 15 17  1  0
 16 18  1  0
 17 19  1  0
 18 20  1  0
 19 20  1  0
M  END
> <chembl_id>
CHEMBL21731

> <chembl_pref_name>
MAPROTILINE

$$$$

     RDKit          2D

 12 11  0  0  1  0  0  0  0  0999 V2000
  -14.5160    3.0892    0.0000 N   0  0  0  0  0  0  0  0  0  0  0  0
  -13.8016    3.5017    0.0000 C   0  0  0  0  0  0  0  0  0  0  0  0
  -13.0871    3.0892    0.0000 N   0  0  0  0  0  0  0  0  0  0  0  0
  -12.3726    3.5017    0.0000 C   0  0  0  0  0  0  0  0  0  0  0  0
  -11.6581    3.0892    0.0000 C   0  0  0  0  0  0  0  0  0  0  0  0
  -10.9437    3.5017    0.0000 C   0  0  0  0  0  0  0  0  0  0  0  0
  -10.2292    3.0892    0.0000 C   0  0  0  0  0  0  0  0  0  0  0  0
   -9.5147    3.5017    0.0000 C   0  0  0  0  0  0  0  0  0  0  0  0
   -8.8003    3.0892    0.0000 O   0  0  0  0  0  0  0  0  0  0  0  0
   -9.5147    4.3267    0.0000 O   0  0  0  0  0  0  0  0  0  0  0  0
  -10.2292    2.2642    0.0000 N   0  0  0  0  0  0  0  0  0  0  0  0
  -13.8016    4.3267    0.0000 N   0  0  0  0  0  0  0  0  0  0  0  0
  1  2  1  0
  2  3  1  0
  3  4  1  0
  4  5  1  0
  5  6  1  0
  6  7  1  0
  7  8  1  0
  8  9  1  0
  8 10  2  0
  7 11  1  1
  2 12  2  0
M  END
> <chembl_id>
CHEMBL1485

> <chembl_pref_name>
ARGININE

$$$$

     RDKit          2D

 11 10  0  0  0  0  0  0  0  0999 V2000
    4.5290   -7.8172    0.0000 N   0  0  0  0  0  0  0  0  0  0  0  0
    4.1165   -7.1028    0.0000 C   0  0  0  0  0  0  0  0  0  0  0  0
    5.3540   -7.8172    0.0000 C   0  0  0  0  0  0  0  0  0  0  0  0
    4.5290   -6.3883    0.0000 N   0  0  0  0  0  0  0  0  0  0  0  0
    5.7665   -8.5317    0.0000 N   0  0  0  0  0  0  0  0  0  0  0  0
    3.2915   -7.1028    0.0000 N   0  0  0  0  0  0  0  0  0  0  0  0
    5.7665   -7.1028    0.0000 N   0  0  0  0  0  0  0  0  0  0  0  0
    2.8790   -7.8172    0.0000 C   0  0  0  0  0  0  0  0  0  0  0  0
    3.2915   -8.5317    0.0000 C   0  0  0  0  0  0  0  0  0  0  0  0
    4.1165   -8.5317    0.0000 C   0  0  0  0  0  0  0  0  0  0  0  0
    4.5290   -9.2462    0.0000 C   0  0  0  0  0  0  0  0  0  0  0  0
  2  1  1  0
  3  1  1  0
  4  2  2  0
  5  3  1  0
  6  2  1  0
  7  3  2  0
  8  6  1  0
  9  8  1  0
 10  9  1  0
 11 10  1  0
M  END
> <chembl_id>
CHEMBL39736

> <chembl_pref_name>
BUFORMIN

$$$$

     RDKit          2D

  9  8  0  0  1  0  0  0  0  0999 V2000
    4.7375   -6.4250    0.0000 C   0  0  0  0  0  0  0  0  0  0  0  0
    5.3500   -6.0667    0.0000 C   0  0  0  0  0  0  0  0  0  0  0  0
    4.1167   -6.0667    0.0000 C   0  0  0  0  0  0  0  0  0  0  0  0
    5.3500   -5.3625    0.0000 O   0  0  0  0  0  0  0  0  0  0  0  0
    4.7375   -7.1292    0.0000 N   0  0  0  0  0  0  0  0  0  0  0  0
    3.5042   -6.4250    0.0000 S   0  0  0  0  0  0  0  0  0  0  0  0
    5.9542   -6.4250    0.0000 O   0  0  0  0  0  0  0  0  0  0  0  0
    3.7625   -5.4542    0.0000 C   0  0  0  0  0  0  0  0  0  0  0  0
    4.4667   -5.4542    0.0000 C   0  0  0  0  0  0  0  0  0  0  0  0
  2  1  1  0
  3  1  1  0
  4  2  2  0
  1  5  1  6
  6  3  1  0
  7  2  1  0
  8  3  1  0
  9  3  1  0
M  END
> <chembl_id>
CHEMBL1430

> <chembl_pref_name>
PENICILLAMINE

$$$$

     RDKit          2D

 22 23  0  0  0  0  0  0  0  0999 V2000
   -5.7455    1.2964    0.0000 C   0  0  0  0  0  0  0  0  0  0  0  0
   -6.5705    1.2964    0.0000 C   0  0  0  0  0  0  0  0  0  0  0  0
   -6.5705    0.4714    0.0000 C   0  0  0  0  0  0  0  0  0  0  0  0
   -5.7455    0.4714    0.0000 N   0  0  0  0  0  0  0  0  0  0  0  0
   -4.9610    0.2165    0.0000 C   0  0  0  0  0  0  0  0  0  0  0  0
   -4.4760    0.8839    0.0000 C   0  0  0  0  0  0  0  0  0  0  0  0
   -4.9609    1.5513    0.0000 C   0  0  0  0  0  0  0  0  0  0  0  0
   -3.6510    0.8839    0.0000 S   0  0  0  0  0  0  0  0  0  0  0  0
   -3.2385    1.5984    0.0000 C   0  0  0  0  0  0  0  0  0  0  0  0
   -2.4135    1.5983    0.0000 C   0  0  0  0  0  0  0  0  0  0  0  0
   -2.0010    2.3128    0.0000 N   0  0  0  0  0  0  0  0  0  0  0  0
   -1.1760    2.3128    0.0000 C   0  0  0  0  0  0  0  0  0  0  0  0
   -0.7635    3.0272    0.0000 N   0  0  0  0  0  0  0  0  0  0  0  0
   -7.1539    1.8798    0.0000 C   0  0  0  0  0  0  0  0  0  0  0  0
   -7.1539   -0.1119    0.0000 O   0  0  0  0  0  0  0  0  0  0  0  0
   -4.7060   -0.5681    0.0000 C   0  0  0  0  0  0  0  0  0  0  0  0
   -3.8991   -0.7397    0.0000 O   0  0  0  0  0  0  0  0  0  0  0  0
   -5.2581   -1.1812    0.0000 O   0  0  0  0  0  0  0  0  0  0  0  0
   -5.7455    2.1214    0.0000 H   0  0  0  0  0  0  0  0  0  0  0  0
   -6.3570    2.0933    0.0000 H   0  0  0  0  0  0  0  0  0  0  0  0
   -7.9508    1.6663    0.0000 C   0  0  0  0  0  0  0  0  0  0  0  0
   -6.9404    2.6767    0.0000 O   0  0  0  0  0  0  0  0  0  0  0  0
  1  2  1  0
  2  3  1  0
  3  4  1  0
  4  5  1  0
  1  4  1  0
  1  7  1  0
  5  6  2  0
  6  7  1  0
  6  8  1  0
  8  9  1  0
  9 10  1  0
 10 11  1  0
 11 12  1  0
 12 13  2  0
  2 14  1  0
  3 15  2  0
  5 16  1  0
 16 17  1  0
 16 18  2  0
  1 19  1  6
  2 20  1  1
 14 21  1  0
 14 22  1  1
M  END
> <chembl_id>
CHEMBL148

> <chembl_pref_name>
IMIPENEM

$$$$

     RDKit          2D

 12 12  0  0  0  0  0  0  0  0999 V2000
    0.7292    0.7208    0.0000 C   0  0  0  0  0  0  0  0  0  0  0  0
   -0.4833    0.0333    0.0000 C   0  0  0  0  0  0  0  0  0  0  0  0
    0.7500    2.1333    0.0000 O   0  0  0  0  0  0  0  0  0  0  0  0
   -1.7000    0.7458    0.0000 C   0  0  0  0  0  0  0  0  0  0  0  0
   -0.5000   -1.3667    0.0000 C   0  0  0  0  0  0  0  0  0  0  0  0
   -2.9458   -1.3542    0.0000 C   0  0  0  0  0  0  0  0  0  0  0  0
    1.9292    0.0083    0.0000 O   0  0  0  0  0  0  0  0  0  0  0  0
   -4.1708   -2.0375    0.0000 N   0  0  0  0  0  0  0  0  0  0  0  0
   -1.7500   -2.0542    0.0000 C   0  0  0  0  0  0  0  0  0  0  0  0
   -2.9208    0.0708    0.0000 C   0  0  0  0  0  0  0  0  0  0  0  0
    3.1542    0.6958    0.0000 C   0  0  0  0  0  0  0  0  0  0  0  0
    4.3417   -0.0167    0.0000 C   0  0  0  0  0  0  0  0  0  0  0  0
  2  1  1  0
  3  1  2  0
  4  2  1  0
  5  2  2  0
  6  9  2  0
  7  1  1  0
  8  6  1  0
  9  5  1  0
 10  4  2  0
 11  7  1  0
 12 11  1  0
 10  6  1  0
M  END
> <chembl_id>
CHEMBL278172

> <chembl_pref_name>
BENZOCAINE

$$$$

     RDKit          2D

 22 24  0  0  0  0  0  0  0  0999 V2000
    3.7375   -4.3833    0.0000 C   0  0  0  0  0  0  0  0  0  0  0  0
    4.1625   -4.9542    0.0000 N   0  0  0  0  0  0  0  0  0  0  0  0
    4.1542   -3.8042    0.0000 N   0  0  0  0  0  0  0  0  0  0  0  0
    3.0250   -4.3917    0.0000 N   0  0  0  0  0  0  0  0  0  0  0  0
    4.8375   -4.7375    0.0000 C   0  0  0  0  0  0  0  0  0  0  0  0
    2.6667   -5.0125    0.0000 C   0  0  0  0  0  0  0  0  0  0  0  0
    4.8375   -4.0167    0.0000 C   0  0  0  0  0  0  0  0  0  0  0  0
    6.0667   -4.7292    0.0000 C   0  0  0  0  0  0  0  0  0  0  0  0
    6.6792   -5.0667    0.0000 C   0  0  0  0  0  0  0  0  0  0  0  0
    5.4500   -5.0750    0.0000 C   0  0  0  0  0  0  0  0  0  0  0  0
    3.0292   -5.6167    0.0000 O   0  0  0  0  0  0  0  0  0  0  0  0
    6.0625   -4.0083    0.0000 C   0  0  0  0  0  0  0  0  0  0  0  0
    6.6917   -5.7792    0.0000 O   0  0  0  0  0  0  0  0  0  0  0  0
    5.4417   -3.6625    0.0000 C   0  0  0  0  0  0  0  0  0  0  0  0
    7.3000   -4.7042    0.0000 C   0  0  0  0  0  0  0  0  0  0  0  0
    1.9542   -5.0167    0.0000 O   0  0  0  0  0  0  0  0  0  0  0  0
    7.9250   -5.0542    0.0000 C   0  0  0  0  0  0  0  0  0  0  0  0
    7.3000   -4.0000    0.0000 C   0  0  0  0  0  0  0  0  0  0  0  0
    1.6042   -5.6292    0.0000 C   0  0  0  0  0  0  0  0  0  0  0  0
    7.9125   -3.6417    0.0000 C   0  0  0  0  0  0  0  0  0  0  0  0
    8.5375   -4.7000    0.0000 C   0  0  0  0  0  0  0  0  0  0  0  0
    8.5375   -4.0000    0.0000 C   0  0  0  0  0  0  0  0  0  0  0  0
  2  1  2  0
  3  1  1  0
  4  1  1  0
  5  2  1  0
  6  4  1  0
  7  3  1  0
  8 10  2  0
  9  8  1  0
 10  5  1  0
 11  6  2  0
 12 14  2  0
 13  9  2  0
 14  7  1  0
 15  9  1  0
 16  6  1  0
 17 15  2  0
 18 15  1  0
 19 16  1  0
 20 18  2  0
 21 17  1  0
 22 20  1  0
  7  5  2  0
 12  8  1  0
 22 21  2  0
M  END
> <chembl_id>
CHEMBL685

> <chembl_pref_name>
MEBENDAZOLE

$$$$

     RDKit          2D

 19 21  0  0  0  0  0  0  0  0999 V2000
    6.1780   -2.1644    0.0000 C   0  0  0  0  0  0  0  0  0  0  0  0
    6.4303   -2.9459    0.0000 C   0  0  0  0  0  0  0  0  0  0  0  0
    5.3529   -2.1644    0.0000 N   0  0  0  0  0  0  0  0  0  0  0  0
    6.8914   -1.7471    0.0000 N   0  0  0  0  0  0  0  0  0  0  0  0
    7.1486   -3.3535    0.0000 S   0  0  0  0  0  0  0  0  0  0  0  0
    5.7655   -3.4360    0.0000 N   0  0  0  0  0  0  0  0  0  0  0  0
    7.1486   -4.1785    0.0000 C   0  0  0  0  0  0  0  0  0  0  0  0
    7.8620   -4.5911    0.0000 C   0  0  0  0  0  0  0  0  0  0  0  0
    5.0957   -2.9459    0.0000 C   0  0  0  0  0  0  0  0  0  0  0  0
    7.8669   -5.4160    0.0000 C   0  0  0  0  0  0  0  0  0  0  0  0
    8.6482   -4.3290    0.0000 N   0  0  0  0  0  0  0  0  0  0  0  0
    8.6531   -5.6684    0.0000 N   0  0  0  0  0  0  0  0  0  0  0  0
    6.4352   -4.5911    0.0000 N   0  0  0  0  0  0  0  0  0  0  0  0
    7.1486   -5.8334    0.0000 N   0  0  0  0  0  0  0  0  0  0  0  0
    9.1383   -4.9938    0.0000 C   0  0  0  0  0  0  0  0  0  0  0  0
    6.4352   -5.4209    0.0000 C   0  0  0  0  0  0  0  0  0  0  0  0
    7.6048   -2.1548    0.0000 O   0  0  0  0  0  0  0  0  0  0  0  0
    6.8816   -0.9221    0.0000 O   0  0  0  0  0  0  0  0  0  0  0  0
    5.7655   -4.2610    0.0000 C   0  0  0  0  0  0  0  0  0  0  0  0
  2  1  2  0
  3  1  1  0
  4  1  1  0
  5  2  1  0
  6  2  1  0
  7  5  1  0
  8  7  2  0
  9  3  2  0
 10  8  1  0
 11  8  1  0
 12 10  1  0
 13  7  1  0
 14 10  2  0
 15 11  2  0
 16 13  2  0
 17  4  1  0
 18  4  2  0
 19  6  1  0
  9  6  1  0
 14 16  1  0
 15 12  1  0
M  CHG  2   4   1  17  -1
M  END
> <chembl_id>
CHEMBL1542

> <chembl_pref_name>
AZATHIOPRINE

$$$$

     RDKit          2D

 17 18  0  0  0  0  0  0  0  0999 V2000
    4.2125   -4.1292    0.0000 C   0  0  0  0  0  0  0  0  0  0  0  0
    5.4375   -4.1167    0.0000 C   0  0  0  0  0  0  0  0  0  0  0  0
    5.4417   -4.8292    0.0000 C   0  0  0  0  0  0  0  0  0  0  0  0
    4.8250   -3.7667    0.0000 C   0  0  0  0  0  0  0  0  0  0  0  0
    4.8292   -5.1875    0.0000 N   0  0  0  0  0  0  0  0  0  0  0  0
    4.2167   -4.8292    0.0000 C   0  0  0  0  0  0  0  0  0  0  0  0
    6.0625   -5.1792    0.0000 N   0  0  0  0  0  0  0  0  0  0  0  0
    3.5917   -3.7667    0.0000 C   0  0  0  0  0  0  0  0  0  0  0  0
    6.0542   -3.7667    0.0000 C   0  0  0  0  0  0  0  0  0  0  0  0
    4.8250   -3.0542    0.0000 O   0  0  0  0  0  0  0  0  0  0  0  0
    3.6042   -3.0542    0.0000 O   0  0  0  0  0  0  0  0  0  0  0  0
    6.6750   -4.8375    0.0000 C   0  0  0  0  0  0  0  0  0  0  0  0
    2.9625   -4.1042    0.0000 O   0  0  0  0  0  0  0  0  0  0  0  0
    6.6667   -4.1167    0.0000 C   0  0  0  0  0  0  0  0  0  0  0  0
    4.8250   -5.9042    0.0000 C   0  0  0  0  0  0  0  0  0  0  0  0
    7.2917   -5.1875    0.0000 C   0  0  0  0  0  0  0  0  0  0  0  0
    4.2167   -6.2542    0.0000 C   0  0  0  0  0  0  0  0  0  0  0  0
  2  4  1  0
  3  5  1  0
  4  1  1  0
  5  6  1  0
  6  1  2  0
  7  3  1  0
  8  1  1  0
  9  2  1  0
 10  4  2  0
 11  8  2  0
 12  7  2  0
 13  8  1  0
 14  9  2  0
 15  5  1  0
 16 12  1  0
 17 15  1  0
  2  3  2  0
 14 12  1  0
M  END
> <chembl_id>
CHEMBL5

> <chembl_pref_name>
NALIDIXIC ACID

$$$$

     RDKit          2D

 18 20  0  0  0  0  0  0  0  0999 V2000
    0.0000    1.4833    0.0000 C   0  0  0  0  0  0  0  0  0  0  0  0
    1.2375    0.7625    0.0000 C   0  0  0  0  0  0  0  0  0  0  0  0
   -1.2458    0.7625    0.0000 C   0  0  0  0  0  0  0  0  0  0  0  0
    0.0000   -1.3792    0.0000 C   0  0  0  0  0  0  0  0  0  0  0  0
    1.2375   -0.6542    0.0000 C   0  0  0  0  0  0  0  0  0  0  0  0
   -1.2458   -0.6542    0.0000 C   0  0  0  0  0  0  0  0  0  0  0  0
    0.0000    2.9083    0.0000 O   0  0  0  0  0  0  0  0  0  0  0  0
    2.4792    1.4833    0.0000 C   0  0  0  0  0  0  0  0  0  0  0  0
   -2.4833    1.4833    0.0000 C   0  0  0  0  0  0  0  0  0  0  0  0
    0.0000   -2.8042    0.0000 O   0  0  0  0  0  0  0  0  0  0  0  0
    2.4792   -1.3792    0.0000 C   0  0  0  0  0  0  0  0  0  0  0  0
   -2.4833   -1.3792    0.0000 C   0  0  0  0  0  0  0  0  0  0  0  0
    2.4792    2.9083    0.0000 O   0  0  0  0  0  0  0  0  0  0  0  0
   -2.4833    2.9083    0.0000 O   0  0  0  0  0  0  0  0  0  0  0  0
    3.7375   -0.6542    0.0000 C   0  0  0  0  0  0  0  0  0  0  0  0
   -3.7458   -0.6542    0.0000 C   0  0  0  0  0  0  0  0  0  0  0  0
    3.7375    0.7625    0.0000 C   0  0  0  0  0  0  0  0  0  0  0  0
   -3.7458    0.7625    0.0000 C   0  0  0  0  0  0  0  0  0  0  0  0
  2  1  1  0
  3  1  1  0
  4  6  1  0
  5  2  2  0
  6  3  2  0
  7  1  2  0
  8  2  1  0
  9  3  1  0
 10  4  2  0
 11  5  1  0
 12  6  1  0
 13  8  1  0
 14  9  1  0
 15 17  1  0
 16 18  1  0
 17  8  2  0
 18  9  2  0
  5  4  1  0
 12 16  2  0
 11 15  2  0
M  END
> <chembl_id>
CHEMBL53418

> <chembl_pref_name>
DANTHRON

$$$$

     RDKit          2D

  7  7  0  0  1  0  0  0  0  0999 V2000
    4.9167   -5.1792    0.0000 C   0  0  0  0  0  0  0  0  0  0  0  0
    4.9167   -4.4750    0.0000 C   0  0  0  0  0  0  0  0  0  0  0  0
    4.2417   -5.4000    0.0000 N   0  0  0  0  0  0  0  0  0  0  0  0
    3.8250   -4.8292    0.0000 O   0  0  0  0  0  0  0  0  0  0  0  0
    5.4917   -5.5917    0.0000 O   0  0  0  0  0  0  0  0  0  0  0  0
    4.2417   -4.2542    0.0000 C   0  0  0  0  0  0  0  0  0  0  0  0
    5.4917   -4.0542    0.0000 N   0  0  0  0  0  0  0  0  0  0  0  0
  2  1  1  0
  3  1  1  0
  4  3  1  0
  5  1  2  0
  6  2  1  0
  2  7  1  1
  4  6  1  0
M  END
> <chembl_id>
CHEMBL771

> <chembl_pref_name>
CYCLOSERINE

$$$$

     RDKit          2D

 24 27  0  0  0  0  0  0  0  0999 V2000
    1.4828   -0.6387    0.0000 C   0  0  0  0  0  0  0  0  0  0  0  0
    2.2949   -0.4935    0.0000 C   0  0  0  0  0  0  0  0  0  0  0  0
    2.5752    0.2825    0.0000 C   0  0  0  0  0  0  0  0  0  0  0  0
    3.3874    0.4277    0.0000 O   0  0  0  0  0  0  0  0  0  0  0  0
    2.0434    0.9132    0.0000 C   0  0  0  0  0  0  0  0  0  0  0  0
    1.2313    0.7680    0.0000 C   0  0  0  0  0  0  0  0  0  0  0  0
    0.6995    1.3987    0.0000 C   0  0  0  0  0  0  0  0  0  0  0  0
   -0.1126    1.2535    0.0000 C   0  0  0  0  0  0  0  0  0  0  0  0
   -0.3929    0.4775    0.0000 C   0  0  0  0  0  0  0  0  0  0  0  0
    0.1389   -0.1532    0.0000 C   0  0  0  0  0  0  0  0  0  0  0  0
    0.9510   -0.0080    0.0000 C   0  0  0  0  0  0  0  0  0  0  0  0
   -0.1414   -0.9291    0.0000 C   0  0  0  0  0  0  0  0  0  0  0  0
   -0.9535   -1.0743    0.0000 C   0  0  0  0  0  0  0  0  0  0  0  0
   -1.4853   -0.4436    0.0000 C   0  0  0  0  0  0  0  0  0  0  0  0
   -1.2050    0.3323    0.0000 C   0  0  0  0  0  0  0  0  0  0  0  0
   -1.8564    0.8387    0.0000 C   0  0  0  0  0  0  0  0  0  0  0  0
   -2.5392    0.3757    0.0000 C   0  0  0  0  0  0  0  0  0  0  0  0
   -2.3099   -0.4168    0.0000 C   0  0  0  0  0  0  0  0  0  0  0  0
   -2.8163   -1.0681    0.0000 O   0  0  0  0  0  0  0  0  0  0  0  0
   -1.8452   -1.1860    0.0000 C   0  0  0  0  0  0  0  0  0  0  0  0
    0.6707   -0.7839    0.0000 C   0  0  0  0  0  0  0  0  0  0  0  0
   -1.0073    1.1333    0.0000 H   0  0  0  0  0  0  0  0  0  0  0  0
    0.4192    0.6227    0.0000 H   0  0  0  0  0  0  0  0  0  0  0  0
   -0.6064    1.2744    0.0000 H   0  0  0  0  0  0  0  0  0  0  0  0
  1  2  1  0
  1 11  1  0
  2  3  1  0
  3  4  1  1
  3  5  1  0
  5  6  1  0
  6  7  2  0
 11  6  1  0
  7  8  1  0
  9  8  1  0
  9 10  1  0
 15  9  1  0
 11 10  1  0
 10 12  1  0
 11 21  1  1
 12 13  1  0
 13 14  1  0
 14 15  1  0
 14 18  1  0
 14 20  1  1
 15 16  1  0
 16 17  1  0
 17 18  1  0
 18 19  2  0
 15 22  1  6
 10 23  1  6
  9 24  1  1
M  END
> <chembl_id>
CHEMBL90593

> <chembl_pref_name>
PRASTERONE

$$$$

     RDKit          2D

 17 18  0  0  0  0  0  0  0  0999 V2000
    4.9042   -5.1167    0.0000 C   0  0  0  0  0  0  0  0  0  0  0  0
    5.5042   -5.4792    0.0000 C   0  0  0  0  0  0  0  0  0  0  0  0
    4.2792   -5.4667    0.0000 C   0  0  0  0  0  0  0  0  0  0  0  0
    4.9125   -4.4167    0.0000 C   0  0  0  0  0  0  0  0  0  0  0  0
    3.6750   -5.1042    0.0000 C   0  0  0  0  0  0  0  0  0  0  0  0
    5.4917   -6.1917    0.0000 O   0  0  0  0  0  0  0  0  0  0  0  0
    6.1250   -5.1417    0.0000 C   0  0  0  0  0  0  0  0  0  0  0  0
    3.6792   -4.4000    0.0000 C   0  0  0  0  0  0  0  0  0  0  0  0
    4.2792   -6.1750    0.0000 O   0  0  0  0  0  0  0  0  0  0  0  0
    4.3042   -4.0500    0.0000 C   0  0  0  0  0  0  0  0  0  0  0  0
    3.0667   -4.0292    0.0000 O   0  0  0  0  0  0  0  0  0  0  0  0
    6.7417   -5.5000    0.0000 C   0  0  0  0  0  0  0  0  0  0  0  0
    6.1375   -4.4292    0.0000 C   0  0  0  0  0  0  0  0  0  0  0  0
    2.4458   -4.3667    0.0000 C   0  0  0  0  0  0  0  0  0  0  0  0
    7.3542   -5.1625    0.0000 C   0  0  0  0  0  0  0  0  0  0  0  0
    6.7625   -4.0875    0.0000 C   0  0  0  0  0  0  0  0  0  0  0  0
    7.3667   -4.4542    0.0000 C   0  0  0  0  0  0  0  0  0  0  0  0
  2  1  1  0
  3  1  2  0
  4  1  1  0
  5  3  1  0
  6  2  2  0
  7  2  1  0
  8 10  1  0
  9  3  1  0
 10  4  2  0
 11  8  1  0
 12  7  2  0
 13  7  1  0
 14 11  1  0
 15 12  1  0
 16 13  2  0
 17 16  1  0
  8  5  2  0
 17 15  2  0
M  END
> <chembl_id>
CHEMBL1625

> <chembl_pref_name>
OXYBENZONE

$$$$

     RDKit          2D

 12 12  0  0  0  0  0  0  0  0999 V2000
   -3.1833   -0.8000    0.0000 S   0  0  0  0  0  0  0  0  0  0  0  0
   -4.1875   -0.0292    0.0000 S   0  0  0  0  0  0  0  0  0  0  0  0
    3.2917    0.2458    0.0000 C   0  0  0  0  0  0  0  0  0  0  0  0
    4.2542    1.0583    0.0000 O   0  0  0  0  0  0  0  0  0  0  0  0
   -2.1458   -0.0917    0.0000 C   0  0  0  0  0  0  0  0  0  0  0  0
    3.5167   -0.9667    0.0000 O   0  0  0  0  0  0  0  0  0  0  0  0
   -2.5000    1.0958    0.0000 C   0  0  0  0  0  0  0  0  0  0  0  0
   -3.7583    1.1333    0.0000 C   0  0  0  0  0  0  0  0  0  0  0  0
    2.1042    0.6708    0.0000 C   0  0  0  0  0  0  0  0  0  0  0  0
   -0.9625   -0.5167    0.0000 C   0  0  0  0  0  0  0  0  0  0  0  0
    1.1500   -0.1250    0.0000 C   0  0  0  0  0  0  0  0  0  0  0  0
   -0.0208    0.2833    0.0000 C   0  0  0  0  0  0  0  0  0  0  0  0
  2  1  1  0
  3  9  1  0
  4  3  2  0
  5  1  1  0
  6  3  1  0
  7  5  1  0
  8  2  1  0
  9 11  1  0
 10  5  1  0
 11 12  1  0
 12 10  1  0
  7  8  1  0
M  END
> <chembl_id>
CHEMBL33864

> <chembl_pref_name>
LIPOIC ACID, ALPHA

$$$$

     RDKit          2D

 25 28  0  0  1  0  0  0  0  0999 V2000
    4.1250   -4.8500    0.0000 C   0  0  0  0  0  0  0  0  0  0  0  0
    4.1250   -5.5500    0.0000 C   0  0  0  0  0  0  0  0  0  0  0  0
    5.3542   -4.8500    0.0000 C   0  0  0  0  0  0  0  0  0  0  0  0
    5.9667   -3.8042    0.0000 C   0  0  0  0  0  0  0  0  0  0  0  0
    4.7417   -4.5042    0.0000 C   0  0  0  0  0  0  0  0  0  0  0  0
    4.7417   -5.8917    0.0000 C   0  0  0  0  0  0  0  0  0  0  0  0
    5.9667   -4.5042    0.0000 C   0  0  0  0  0  0  0  0  0  0  0  0
    3.5125   -4.5042    0.0000 C   0  0  0  0  0  0  0  0  0  0  0  0
    5.3542   -5.5500    0.0000 C   0  0  0  0  0  0  0  0  0  0  0  0
    3.5125   -5.8917    0.0000 C   0  0  0  0  0  0  0  0  0  0  0  0
    6.6542   -3.5917    0.0000 C   0  0  0  0  0  0  0  0  0  0  0  0
    5.3542   -3.4542    0.0000 C   0  0  0  0  0  0  0  0  0  0  0  0
    4.7417   -3.8042    0.0000 C   0  0  0  0  0  0  0  0  0  0  0  0
    6.6542   -4.7167    0.0000 C   0  0  0  0  0  0  0  0  0  0  0  0
    2.8917   -4.8500    0.0000 C   0  0  0  0  0  0  0  0  0  0  0  0
    2.8917   -5.5500    0.0000 C   0  0  0  0  0  0  0  0  0  0  0  0
    7.0417   -4.1542    0.0000 C   0  0  0  0  0  0  0  0  0  0  0  0
    4.7417   -6.7000    0.0000 C   0  0  0  0  0  0  0  0  0  0  0  0
    6.8542   -2.9875    0.0000 O   0  0  0  0  0  0  0  0  0  0  0  0
    2.3292   -5.8542    0.0000 O   0  0  0  0  0  0  0  0  0  0  0  0
    4.1292   -3.9917    0.0000 C   0  0  0  0  0  0  0  0  0  0  0  0
    5.9667   -3.0500    0.0000 C   0  0  0  0  0  0  0  0  0  0  0  0
    5.3625   -4.1417    0.0000 H   0  0  0  0  0  0  0  0  0  0  0  0
    4.7417   -5.2125    0.0000 H   0  0  0  0  0  0  0  0  0  0  0  0
    5.9667   -5.1667    0.0000 H   0  0  0  0  0  0  0  0  0  0  0  0
  2  1  1  0
  3  5  1  0
  4 12  1  0
  5  1  1  0
  6  2  1  0
  7  3  1  0
  8  1  1  0
  9  3  1  0
 10  2  2  0
 11  4  1  0
 12 13  1  0
 13  5  1  0
 14  7  1  0
 15  8  2  0
 16 15  1  0
 17 14  1  0
 18  6  2  0
 19 11  2  0
 20 16  2  0
  1 21  1  1
  4 22  1  1
  3 23  1  1
  5 24  1  6
  7 25  1  6
 16 10  1  0
  9  6  1  0
  4  7  1  0
 17 11  1  0
M  END
> <chembl_id>
CHEMBL1200374

> <chembl_pref_name>
EXEMESTANE

$$$$

     RDKit          2D

  4  3  0  0  0  0  0  0  0  0999 V2000
    4.9292   -4.8667    0.0000 C   0  0  0  0  0  0  0  0  0  0  0  0
    4.9167   -4.1625    0.0000 O   0  0  0  0  0  0  0  0  0  0  0  0
    4.3167   -5.2500    0.0000 N   0  0  0  0  0  0  0  0  0  0  0  0
    5.5500   -5.2125    0.0000 N   0  0  0  0  0  0  0  0  0  0  0  0
  2  1  2  0
  3  1  1  0
  4  1  1  0
M  END
> <chembl_id>
CHEMBL985

> <chembl_pref_name>
UREA

$$$$

     RDKit          2D

 13 12  0  0  0  0  0  0  0  0999 V2000
   -3.0643   -2.6813    0.0000 N   0  0  0  0  0  0  0  0  0  0  0  0
   -2.3498   -2.2688    0.0000 C   0  0  0  0  0  0  0  0  0  0  0  0
   -1.6353   -2.6813    0.0000 N   0  0  0  0  0  0  0  0  0  0  0  0
   -0.9209   -2.2688    0.0000 C   0  0  0  0  0  0  0  0  0  0  0  0
   -0.2064   -2.6813    0.0000 C   0  0  0  0  0  0  0  0  0  0  0  0
    0.5081   -2.2688    0.0000 C   0  0  0  0  0  0  0  0  0  0  0  0
    1.2225   -2.6813    0.0000 C   0  0  0  0  0  0  0  0  0  0  0  0
    1.9370   -2.2688    0.0000 O   0  0  0  0  0  0  0  0  0  0  0  0
    1.2225   -3.5063    0.0000 O   0  0  0  0  0  0  0  0  0  0  0  0
   -0.9209   -1.4438    0.0000 C   0  0  0  0  0  0  0  0  0  0  0  0
   -0.2064   -1.0313    0.0000 O   0  0  0  0  0  0  0  0  0  0  0  0
   -1.6353   -1.0313    0.0000 O   0  0  0  0  0  0  0  0  0  0  0  0
   -2.3498   -1.4438    0.0000 O   0  0  0  0  0  0  0  0  0  0  0  0
  1  2  1  0
  2  3  1  0
  4  3  1  6
  4  5  1  0
  5  6  1  0
  6  7  1  0
  7  8  1  0
  7  9  2  0
  4 10  1  0
 10 11  2  0
 10 12  1  0
  2 13  2  0
M  END
> <chembl_id>
CHEMBL1201780

> <chembl_pref_name>
CARGLUMIC ACID

$$$$

     RDKit          2D

 11 11  0  0  0  0  0  0  0  0999 V2000
   -0.5833    1.7208    0.0000 C   0  0  0  0  0  0  0  0  0  0  0  0
    0.6542    0.9958    0.0000 C   0  0  0  0  0  0  0  0  0  0  0  0
   -1.8208    0.9958    0.0000 O   0  0  0  0  0  0  0  0  0  0  0  0
    0.6542   -0.4625    0.0000 C   0  0  0  0  0  0  0  0  0  0  0  0
   -0.5833    3.1458    0.0000 O   0  0  0  0  0  0  0  0  0  0  0  0
    1.8917    1.7208    0.0000 O   0  0  0  0  0  0  0  0  0  0  0  0
    1.8917   -1.1542    0.0000 C   0  0  0  0  0  0  0  0  0  0  0  0
   -0.5833   -1.1542    0.0000 C   0  0  0  0  0  0  0  0  0  0  0  0
    1.8917   -2.6042    0.0000 C   0  0  0  0  0  0  0  0  0  0  0  0
   -0.5833   -2.6042    0.0000 C   0  0  0  0  0  0  0  0  0  0  0  0
    0.6542   -3.3000    0.0000 C   0  0  0  0  0  0  0  0  0  0  0  0
  2  1  1  0
  3  1  2  0
  4  2  1  0
  5  1  1  0
  6  2  1  0
  7  4  1  0
  8  4  2  0
  9  7  2  0
 10  8  1  0
 11 10  2  0
  9 11  1  0
M  END
> <chembl_id>
CHEMBL1609

> <chembl_pref_name>
MANDELIC ACID

$$$$

     RDKit          2D

 19 19  0  0  0  0  0  0  0  0999 V2000
    5.3375   -4.7167    0.0000 Cl  0  0  0  0  0  0  0  0  0  0  0  0
    6.5250   -3.6917    0.0000 C   0  0  0  0  0  0  0  0  0  0  0  0
    6.8625   -4.3208    0.0000 C   0  0  0  0  0  0  0  0  0  0  0  0
    5.3042   -2.9917    0.0000 N   0  0  0  0  0  0  0  0  0  0  0  0
    6.5250   -2.9875    0.0000 C   0  0  0  0  0  0  0  0  0  0  0  0
    5.9250   -4.0542    0.0000 C   0  0  0  0  0  0  0  0  0  0  0  0
    7.1417   -3.3417    0.0000 C   0  0  0  0  0  0  0  0  0  0  0  0
    7.5792   -4.3417    0.0000 O   0  0  0  0  0  0  0  0  0  0  0  0
    5.9167   -2.6292    0.0000 C   0  0  0  0  0  0  0  0  0  0  0  0
    5.3042   -3.7042    0.0000 C   0  0  0  0  0  0  0  0  0  0  0  0
    6.4917   -4.9250    0.0000 O   0  0  0  0  0  0  0  0  0  0  0  0
    4.6792   -2.6375    0.0000 C   0  0  0  0  0  0  0  0  0  0  0  0
    7.1500   -2.6292    0.0000 C   0  0  0  0  0  0  0  0  0  0  0  0
    7.7542   -3.6917    0.0000 C   0  0  0  0  0  0  0  0  0  0  0  0
    6.8292   -5.5417    0.0000 C   0  0  0  0  0  0  0  0  0  0  0  0
    6.4625   -6.1500    0.0000 C   0  0  0  0  0  0  0  0  0  0  0  0
    7.7625   -2.2750    0.0000 C   0  0  0  0  0  0  0  0  0  0  0  0
    8.3792   -3.3417    0.0000 C   0  0  0  0  0  0  0  0  0  0  0  0
    8.3792   -2.6292    0.0000 C   0  0  0  0  0  0  0  0  0  0  0  0
  3  2  1  0
  4 10  1  0
  5  2  1  0
  6  2  1  0
  7  2  1  0
  8  3  2  0
  9  5  1  0
 10  6  1  0
 11  3  1  0
 12  4  1  0
 13  7  1  0
 14  7  2  0
 15 11  1  0
 16 15  1  0
 17 13  2  0
 18 14  1  0
 19 17  1  0
  4  9  1  0
 19 18  2  0
M  END
> <chembl_id>
CHEMBL1701

> <chembl_pref_name>
MEPERIDINE HYDROCHLORIDE

$$$$

     RDKit          2D

 19 20  0  0  0  0  0  0  0  0999 V2000
    0.3875   -5.9500    0.0000 N   0  0  0  0  0  0  0  0  0  0  0  0
    1.0000   -5.5917    0.0000 C   0  0  0  0  0  0  0  0  0  0  0  0
    1.6167   -5.9417    0.0000 N   0  0  0  0  0  0  0  0  0  0  0  0
   -0.2208   -5.5917    0.0000 C   0  0  0  0  0  0  0  0  0  0  0  0
    0.4000   -6.6542    0.0000 C   0  0  0  0  0  0  0  0  0  0  0  0
   -0.2083   -7.7250    0.0000 N   0  0  0  0  0  0  0  0  0  0  0  0
   -0.2125   -7.0125    0.0000 C   0  0  0  0  0  0  0  0  0  0  0  0
   -0.8375   -5.9542    0.0000 C   0  0  0  0  0  0  0  0  0  0  0  0
    0.9875   -4.8792    0.0000 C   0  0  0  0  0  0  0  0  0  0  0  0
    2.2250   -5.5792    0.0000 C   0  0  0  0  0  0  0  0  0  0  0  0
    0.4125   -8.0667    0.0000 C   0  0  0  0  0  0  0  0  0  0  0  0
   -0.8208   -8.0792    0.0000 C   0  0  0  0  0  0  0  0  0  0  0  0
   -1.4583   -5.6042    0.0000 C   0  0  0  0  0  0  0  0  0  0  0  0
   -0.8250   -6.6625    0.0000 C   0  0  0  0  0  0  0  0  0  0  0  0
    1.6042   -4.5167    0.0000 C   0  0  0  0  0  0  0  0  0  0  0  0
    2.2250   -4.8667    0.0000 C   0  0  0  0  0  0  0  0  0  0  0  0
   -1.4458   -7.0167    0.0000 C   0  0  0  0  0  0  0  0  0  0  0  0
   -2.0708   -5.9542    0.0000 C   0  0  0  0  0  0  0  0  0  0  0  0
   -2.0583   -6.6667    0.0000 C   0  0  0  0  0  0  0  0  0  0  0  0
  2  1  1  0
  3  2  2  0
  4  1  1  0
  5  1  1  0
  6  7  1  0
  7  5  1  0
  8  4  1  0
  9  2  1  0
 10  3  1  0
 11  6  1  0
 12  6  1  0
 13  8  2  0
 14  8  1  0
 15  9  2  0
 16 15  1  0
 17 14  2  0
 18 13  1  0
 19 17  1  0
 16 10  2  0
 19 18  2  0
M  END
> <chembl_id>
CHEMBL1241

> <chembl_pref_name>
TRIPELENNAMINE

$$$$

     RDKit          2D

  9  8  0  0  0  0  0  0  0  0999 V2000
   -0.5625   -0.2792    0.0000 C   0  0  0  0  0  0  0  0  0  0  0  0
    1.9125   -0.2792    0.0000 C   0  0  0  0  0  0  0  0  0  0  0  0
   -1.8000    0.4083    0.0000 C   0  0  0  0  0  0  0  0  0  0  0  0
    0.6750    0.4083    0.0000 C   0  0  0  0  0  0  0  0  0  0  0  0
    3.1500    0.4083    0.0000 O   0  0  0  0  0  0  0  0  0  0  0  0
   -3.0333   -0.2792    0.0000 O   0  0  0  0  0  0  0  0  0  0  0  0
    1.9125   -1.7375    0.0000 O   0  0  0  0  0  0  0  0  0  0  0  0
   -1.8000    1.8625    0.0000 O   0  0  0  0  0  0  0  0  0  0  0  0
    0.6750    1.8625    0.0000 O   0  0  0  0  0  0  0  0  0  0  0  0
  2  4  1  0
  3  1  1  0
  4  1  1  0
  5  2  2  0
  6  3  2  0
  7  2  1  0
  8  3  1  0
  9  4  1  0
M  END
> <chembl_id>
CHEMBL1455497

> <chembl_pref_name>
MALIC ACID

$$$$

     RDKit          2D

  4  3  0  0  0  0  0  0  0  0999 V2000
   -1.8583   -1.3667    0.0000 C   0  0  0  0  0  0  0  0  0  0  0  0
   -1.8583   -0.6542    0.0000 O   0  0  0  0  0  0  0  0  0  0  0  0
   -1.2458   -1.7167    0.0000 N   0  0  0  0  0  0  0  0  0  0  0  0
   -2.4708   -1.7167    0.0000 N   0  0  0  0  0  0  0  0  0  0  0  0
  2  1  2  0
  3  1  1  0
  4  1  1  0
M  ISO  1   1  13
M  END
> <chembl_id>
CHEMBL2096648

> <chembl_pref_name>
UREA C 13

$$$$

     RDKit          2D

 10  9  0  0  1  0  0  0  0  0999 V2000
   -1.5583   -2.5750    0.0000 C   0  0  0  0  0  0  0  0  0  0  0  0
   -0.8958   -2.1917    0.0000 C   0  0  0  0  0  0  0  0  0  0  0  0
    1.7542   -2.1917    0.0000 N   0  0  0  0  0  0  0  0  0  0  0  0
   -0.2333   -2.5750    0.0000 C   0  0  0  0  0  0  0  0  0  0  0  0
    1.0917   -2.5750    0.0000 C   0  0  0  0  0  0  0  0  0  0  0  0
   -2.2208   -2.1917    0.0000 C   0  0  0  0  0  0  0  0  0  0  0  0
   -1.5583   -3.3375    0.0000 C   0  0  0  0  0  0  0  0  0  0  0  0
    2.4125   -2.5792    0.0000 C   0  0  0  0  0  0  0  0  0  0  0  0
    0.4292   -2.1917    0.0000 C   0  0  0  0  0  0  0  0  0  0  0  0
    1.0917   -3.3375    0.0000 C   0  0  0  0  0  0  0  0  0  0  0  0
  2  1  2  0
  3  5  1  0
  4  2  1  0
  5  9  1  0
  6  1  1  0
  7  1  1  0
  8  3  1  0
  9  4  1  0
 10  5  1  0
M  END
> <chembl_id>
CHEMBL1697841

> <chembl_pref_name>
ISOMETHEPTENE

$$$$

     RDKit          2D

 18 19  0  0  0  0  0  0  0  0999 V2000
   -0.7292   -0.6917    0.0000 S   0  0  0  0  0  0  0  0  0  0  0  0
   -0.1125   -1.0417    0.0000 C   0  0  0  0  0  0  0  0  0  0  0  0
    1.0917   -1.0417    0.0000 C   0  0  0  0  0  0  0  0  0  0  0  0
    1.7042   -0.6917    0.0000 C   0  0  0  0  0  0  0  0  0  0  0  0
    1.0917   -1.7542    0.0000 C   0  0  0  0  0  0  0  0  0  0  0  0
    2.3167   -1.0417    0.0000 N   0  0  0  0  0  0  0  0  0  0  0  0
    0.4875   -0.6917    0.0000 C   0  0  0  0  0  0  0  0  0  0  0  0
    1.7042   -2.1167    0.0000 N   0  0  0  0  0  0  0  0  0  0  0  0
   -0.1125   -1.7542    0.0000 C   0  0  0  0  0  0  0  0  0  0  0  0
    0.4875   -2.1167    0.0000 C   0  0  0  0  0  0  0  0  0  0  0  0
    2.3167   -1.7542    0.0000 C   0  0  0  0  0  0  0  0  0  0  0  0
   -0.3833   -0.0750    0.0000 O   0  0  0  0  0  0  0  0  0  0  0  0
   -1.0875   -0.0750    0.0000 O   0  0  0  0  0  0  0  0  0  0  0  0
    1.7042    0.0208    0.0000 O   0  0  0  0  0  0  0  0  0  0  0  0
   -1.3417   -1.0500    0.0000 N   0  0  0  0  0  0  0  0  0  0  0  0
   -0.7250   -2.1167    0.0000 Cl  0  0  0  0  0  0  0  0  0  0  0  0
    2.9292   -2.1167    0.0000 C   0  0  0  0  0  0  0  0  0  0  0  0
    3.5500   -1.7667    0.0000 C   0  0  0  0  0  0  0  0  0  0  0  0
  2  1  1  0
  3  7  1  0
  4  3  1  0
  5 10  1  0
  6  4  1  0
  7  2  2  0
  8  5  1  0
  9  2  1  0
 10  9  2  0
 11  8  1  0
 12  1  2  0
 13  1  2  0
 14  4  2  0
 15  1  1  0
 16  9  1  0
 17 11  1  0
 18 17  1  0
  3  5  2  0
  6 11  1  0
M  END
> <chembl_id>
CHEMBL1532

> <chembl_pref_name>
QUINETHAZONE

$$$$

     RDKit          2D

 18 18  0  0  0  0  0  0  0  0999 V2000
    8.3982    3.1483    0.0000 C   0  0  0  0  0  0  0  0  0  0  0  0
    8.3982    2.3233    0.0000 C   0  0  0  0  0  0  0  0  0  0  0  0
    9.1099    1.9147    0.0000 C   0  0  0  0  0  0  0  0  0  0  0  0
    9.8216    2.3233    0.0000 C   0  0  0  0  0  0  0  0  0  0  0  0
    9.8216    3.1483    0.0000 O   0  0  0  0  0  0  0  0  0  0  0  0
    9.1099    3.5648    0.0000 C   0  0  0  0  0  0  0  0  0  0  0  0
    9.1099    4.3898    0.0000 C   0  0  0  0  0  0  0  0  0  0  0  0
    9.8244    4.8023    0.0000 O   0  0  0  0  0  0  0  0  0  0  0  0
    7.6825    3.5588    0.0000 O   0  0  0  0  0  0  0  0  0  0  0  0
    7.6842    1.9099    0.0000 O   0  0  0  0  0  0  0  0  0  0  0  0
    9.1099    1.0897    0.0000 N   0  0  0  0  0  0  0  0  0  0  0  0
    8.3954    0.6771    0.0000 C   0  0  0  0  0  0  0  0  0  0  0  0
   10.5357    1.9099    0.0000 O   0  0  0  0  0  0  0  0  0  0  0  0
    7.6809    1.0897    0.0000 O   0  0  0  0  0  0  0  0  0  0  0  0
    8.3954   -0.1479    0.0000 N   0  0  0  0  0  0  0  0  0  0  0  0
    7.6809   -0.5604    0.0000 C   0  0  0  0  0  0  0  0  0  0  0  0
    9.1099   -0.5604    0.0000 N   0  0  0  0  0  0  0  0  0  0  0  0
    9.1099   -1.3854    0.0000 O   0  0  0  0  0  0  0  0  0  0  0  0
  1  9  1  6
  2  3  1  0
  2 10  1  1
  3  4  1  0
  3 11  1  6
  4  5  1  0
 11 12  1  0
  5  6  1  0
  4 13  1  0
 12 14  2  0
  6  7  1  1
 12 15  1  0
  1  2  1  0
 15 16  1  0
  7  8  1  0
 15 17  1  0
  1  6  1  0
 17 18  2  0
M  END
> <chembl_id>
CHEMBL1651906

> <chembl_pref_name>
STREPTOZOCIN

$$$$

     RDKit          2D

 15 12  0  0  0  0  0  0  0  0999 V2000
    5.4884   -9.5464    0.0000 C   0  0  0  0  0  0  0  0  0  0  0  0
    6.1962   -9.9624    0.0000 O   0  0  0  0  0  0  0  0  0  0  0  0
    5.4884   -8.7526    0.0000 O   0  0  0  0  0  0  0  0  0  0  0  0
    2.6624   -9.5608    0.0000 O   0  0  0  0  0  0  0  0  0  0  0  0
    4.7760   -9.9624    0.0000 C   0  0  0  0  0  0  0  0  0  0  0  0
    3.3702   -9.9624    0.0000 C   0  0  0  0  0  0  0  0  0  0  0  0
    4.0826   -9.5464    0.0000 C   0  0  0  0  0  0  0  0  0  0  0  0
    5.3077   -7.5216    0.0000 C   0  0  0  0  0  0  0  0  0  0  0  0
    6.0154   -7.9377    0.0000 O   0  0  0  0  0  0  0  0  0  0  0  0
    5.3077   -6.7278    0.0000 O   0  0  0  0  0  0  0  0  0  0  0  0
    2.4817   -7.5360    0.0000 O   0  0  0  0  0  0  0  0  0  0  0  0
    4.5952   -7.9377    0.0000 C   0  0  0  0  0  0  0  0  0  0  0  0
    3.1894   -7.9377    0.0000 C   0  0  0  0  0  0  0  0  0  0  0  0
    3.9019   -7.5216    0.0000 C   0  0  0  0  0  0  0  0  0  0  0  0
    6.7038   -8.5518    0.0000 Ca  0  0  0  0  0 15  0  0  0  0  0  0
  2  1  1  0
  3  1  2  0
  4  6  1  0
  5  1  1  0
  6  7  1  0
  7  5  1  0
  9  8  1  0
 10  8  2  0
 11 13  1  0
 12  8  1  0
 13 14  1  0
 14 12  1  0
M  CHG  3   2  -1   9  -1  15   2
M  END
> <chembl_id>
CHEMBL4594393

> <chembl_pref_name>
CALCIUM OXYBATE

$$$$

     RDKit          2D

 16 15  0  0  0  0  0  0  0  0999 V2000
    4.8611   -3.1474    0.0000 Na  0  0  0  0  0 15  0  0  0  0  0  0
    7.0865   -3.0183    0.0000 N   0  0  0  0  0  0  0  0  0  0  0  0
    7.7832   -2.5895    0.0000 C   0  0  0  0  0  0  0  0  0  0  0  0
    7.0592   -1.3639    0.0000 C   0  0  0  0  0  0  0  0  0  0  0  0
    7.7697   -1.7695    0.0000 C   0  0  0  0  0  0  0  0  0  0  0  0
    6.3529   -1.7929    0.0000 N   0  0  0  0  0  0  0  0  0  0  0  0
    6.3665   -2.6128    0.0000 C   0  0  0  0  0  0  0  0  0  0  0  0
    8.5129   -2.9851    0.0000 O   0  0  0  0  0  0  0  0  0  0  0  0
    7.0457   -0.5439    0.0000 O   0  0  0  0  0  0  0  0  0  0  0  0
    5.6503   -3.0323    0.0000 O   0  0  0  0  0  0  0  0  0  0  0  0
    8.1750   -1.0397    0.0000 C   0  0  0  0  0  0  0  0  0  0  0  0
    8.5944   -1.7462    0.0000 C   0  0  0  0  0  0  0  0  0  0  0  0
    9.0046   -1.0260    0.0000 C   0  0  0  0  0  0  0  0  0  0  0  0
    7.7557   -0.3332    0.0000 C   0  0  0  0  0  0  0  0  0  0  0  0
    9.0282   -2.4524    0.0000 C   0  0  0  0  0  0  0  0  0  0  0  0
    9.4053   -0.3060    0.0000 C   0  0  0  0  0  0  0  0  0  0  0  0
  3  2  1  0
  4  6  1  0
  5  3  1  0
  6  7  1  0
  7  2  1  0
  8  3  2  0
  9  4  2  0
 10  7  2  0
 11  5  1  0
 12  5  1  0
 13 11  1  0
 14 11  1  0
 15 12  1  0
 16 13  1  0
  4  5  1  0
M  CHG  2   1   1   6  -1
M  END
> <chembl_id>
CHEMBL1200982

> <chembl_pref_name>
BUTABARBITAL SODIUM

$$$$

     RDKit          2D

 22 25  0  0  1  0  0  0  0  0999 V2000
    0.6500   -0.5125    0.0000 C   0  0  0  0  0  0  0  0  0  0  0  0
   -0.6333   -0.5167    0.0000 C   0  0  0  0  0  0  0  0  0  0  0  0
    0.6167    1.6458    0.0000 C   0  0  0  0  0  0  0  0  0  0  0  0
    1.2167    0.5250    0.0000 C   0  0  0  0  0  0  0  0  0  0  0  0
    1.0292    2.6833    0.0000 N   0  0  0  0  0  0  0  0  0  0  0  0
   -1.2833    0.5000    0.0000 C   0  0  0  0  0  0  0  0  0  0  0  0
   -0.6500    1.6333    0.0000 C   0  0  0  0  0  0  0  0  0  0  0  0
    1.9292    0.0083    0.0000 C   0  0  0  0  0  0  0  0  0  0  0  0
    2.0792    2.2708    0.0000 C   0  0  0  0  0  0  0  0  0  0  0  0
   -1.2958   -1.6667    0.0000 C   0  0  0  0  0  0  0  0  0  0  0  0
   -2.5333    0.5000    0.0000 C   0  0  0  0  0  0  0  0  0  0  0  0
   -2.6208   -1.6792    0.0000 C   0  0  0  0  0  0  0  0  0  0  0  0
    1.1917   -1.7167    0.0000 C   0  0  0  0  0  0  0  0  0  0  0  0
   -3.2625   -0.5500    0.0000 C   0  0  0  0  0  0  0  0  0  0  0  0
    0.3667    3.5958    0.0000 C   0  0  0  0  0  0  0  0  0  0  0  0
    2.5542    0.5250    0.0000 C   0  0  0  0  0  0  0  0  0  0  0  0
   -3.1208   -2.5125    0.0000 O   0  0  0  0  0  0  0  0  0  0  0  0
   -2.5208   -3.5917    0.0000 C   0  0  0  0  0  0  0  0  0  0  0  0
    2.5875   -1.7167    0.0000 C   0  0  0  0  0  0  0  0  0  0  0  0
    3.2792   -0.5500    0.0000 C   0  0  0  0  0  0  0  0  0  0  0  0
   -0.0333    0.5458    0.0000 H   0  0  0  0  0  0  0  0  0  0  0  0
   -0.3083    2.5833    0.0000 H   0  0  0  0  0  0  0  0  0  0  0  0
  2  1  1  0
  3  4  1  0
  4  1  1  0
  5  9  1  0
  6  2  2  0
  7  3  1  0
  1  8  1  6
  9  8  1  0
 10  2  1  0
 11  6  1  0
 12 10  2  0
 13  1  1  0
 14 12  1  0
 15  5  1  0
 16  4  1  0
 17 12  1  0
 18 17  1  0
 19 13  1  0
 20 19  1  0
  4 21  1  6
  3 22  1  1
 16 20  1  0
  3  5  1  0
  6  7  1  0
 11 14  2  0
M  END
> <chembl_id>
CHEMBL52440

> <chembl_pref_name>
DEXTROMETHORPHAN

$$$$

     RDKit          2D

 21 22  0  0  0  0  0  0  0  0999 V2000
    2.7875   -2.3667    0.0000 C   0  0  0  0  0  0  0  0  0  0  0  0
    4.6417   -2.0042    0.0000 N   0  0  0  0  0  0  0  0  0  0  0  0
    3.4042   -2.0042    0.0000 C   0  0  0  0  0  0  0  0  0  0  0  0
    5.2625   -2.3667    0.0000 C   0  0  0  0  0  0  0  0  0  0  0  0
    2.1750   -2.0292    0.0000 C   0  0  0  0  0  0  0  0  0  0  0  0
    2.7875   -3.0625    0.0000 C   0  0  0  0  0  0  0  0  0  0  0  0
    4.0250   -2.3667    0.0000 C   0  0  0  0  0  0  0  0  0  0  0  0
    5.2625   -3.0750    0.0000 C   0  0  0  0  0  0  0  0  0  0  0  0
    5.9792   -2.7500    0.0000 C   0  0  0  0  0  0  0  0  0  0  0  0
    5.8750   -2.0042    0.0000 C   0  0  0  0  0  0  0  0  0  0  0  0
    2.1750   -3.4042    0.0000 C   0  0  0  0  0  0  0  0  0  0  0  0
    2.1750   -1.3375    0.0000 C   0  0  0  0  0  0  0  0  0  0  0  0
    1.5667   -2.3875    0.0000 C   0  0  0  0  0  0  0  0  0  0  0  0
    3.4000   -3.4167    0.0000 C   0  0  0  0  0  0  0  0  0  0  0  0
    4.0250   -3.0625    0.0000 C   0  0  0  0  0  0  0  0  0  0  0  0
    2.1750   -4.1250    0.0000 C   0  0  0  0  0  0  0  0  0  0  0  0
    1.5542   -0.9792    0.0000 C   0  0  0  0  0  0  0  0  0  0  0  0
    0.9417   -2.0292    0.0000 C   0  0  0  0  0  0  0  0  0  0  0  0
    3.4042   -4.1250    0.0000 C   0  0  0  0  0  0  0  0  0  0  0  0
    0.9417   -1.3417    0.0000 C   0  0  0  0  0  0  0  0  0  0  0  0
    2.7917   -4.4542    0.0000 C   0  0  0  0  0  0  0  0  0  0  0  0
  2  7  1  0
  3  1  1  0
  4  2  1  0
  5  1  1  0
  6  1  1  0
  7  3  1  0
  8  4  1  0
  9  4  1  0
 10  4  1  0
 11  6  2  0
 12  5  2  0
 13  5  1  0
 14  6  1  0
 15  7  1  0
 16 11  1  0
 17 12  1  0
 18 13  2  0
 19 14  2  0
 20 18  1  0
 21 16  2  0
 21 19  1  0
 17 20  2  0
M  END
> <chembl_id>
CHEMBL363295

> <chembl_pref_name>
TERODILINE

$$$$

     RDKit          2D

 24 28  0  0  0  0  0  0  0  0999 V2000
   -5.6611   -2.8626    0.0000 C   0  0  0  0  0  0  0  0  0  0  0  0
   -6.0736   -2.1481    0.0000 C   0  0  0  0  0  0  0  0  0  0  0  0
   -6.8986   -2.1481    0.0000 C   0  0  0  0  0  0  0  0  0  0  0  0
   -7.3111   -2.8626    0.0000 C   0  0  0  0  0  0  0  0  0  0  0  0
   -6.8986   -3.5771    0.0000 C   0  0  0  0  0  0  0  0  0  0  0  0
   -6.0736   -3.5771    0.0000 C   0  0  0  0  0  0  0  0  0  0  0  0
   -5.6611   -1.4336    0.0000 C   0  0  0  0  0  0  0  0  0  0  0  0
   -4.8361   -1.4336    0.0000 C   0  0  0  0  0  0  0  0  0  0  0  0
   -4.4236   -2.1481    0.0000 C   0  0  0  0  0  0  0  0  0  0  0  0
   -4.8361   -2.8626    0.0000 C   0  0  0  0  0  0  0  0  0  0  0  0
   -3.5986   -2.1480    0.0000 C   0  0  0  0  0  0  0  0  0  0  0  0
   -3.1860   -2.8625    0.0000 C   0  0  0  0  0  0  0  0  0  0  0  0
   -3.5985   -3.5770    0.0000 C   0  0  0  0  0  0  0  0  0  0  0  0
   -4.4235   -3.5770    0.0000 C   0  0  0  0  0  0  0  0  0  0  0  0
   -5.3591   -3.9896    0.0000 O   0  0  0  0  0  0  0  0  0  0  0  0
   -7.3111   -4.2915    0.0000 O   0  0  0  0  0  0  0  0  0  0  0  0
   -3.1860   -4.2914    0.0000 O   0  0  0  0  0  0  0  0  0  0  0  0
   -4.8361   -0.6086    0.0000 N   0  0  0  0  0  0  0  0  0  0  0  0
   -5.4194   -2.2792    0.0000 C   0  0  0  0  0  0  0  0  0  0  0  0
   -5.6611   -0.6086    0.0000 C   0  0  0  0  0  0  0  0  0  0  0  0
   -4.6226    0.1883    0.0000 C   0  0  0  0  0  0  0  0  0  0  0  0
   -4.2173   -4.5555    0.0000 H   0  0  0  0  0  0  0  0  0  0  0  0
   -3.9236   -1.2820    0.0000 H   0  0  0  0  0  0  0  0  0  0  0  0
   -5.5432   -0.7265    0.0000 H   0  0  0  0  0  0  0  0  0  0  0  0
  2  3  2  0
  3  4  1  0
  4  5  2  0
  5  6  1  0
  6  1  2  0
 10  1  1  0
  1  2  1  0
  2  7  1  0
  7  8  1  0
  8  9  1  0
  9 11  1  0
 10  9  1  0
 14 10  1  0
 11 12  1  0
 12 13  1  0
 13 14  1  0
  6 15  1  0
 14 15  1  0
  5 16  1  0
 13 17  2  0
  8 18  1  0
 10 19  1  1
 18 20  1  0
 20 19  1  0
 18 21  1  0
 14 22  1  1
  9 23  1  1
  8 24  1  6
M  END
> <chembl_id>
CHEMBL398707

> <chembl_pref_name>
HYDROMORPHONE

$$$$

     RDKit          2D

 19 18  0  0  0  0  0  0  0  0999 V2000
    5.3042   -3.9375    0.0000 Na  0  0  0  0  0 15  0  0  0  0  0  0
    5.9917   -5.1542    0.0000 S   0  0  0  0  0  0  0  0  0  0  0  0
    5.3792   -4.8042    0.0000 N   0  0  0  0  0  0  0  0  0  0  0  0
    4.7667   -5.1542    0.0000 C   0  0  0  0  0  0  0  0  0  0  0  0
    6.6042   -4.8042    0.0000 C   0  0  0  0  0  0  0  0  0  0  0  0
    6.3417   -5.7667    0.0000 O   0  0  0  0  0  0  0  0  0  0  0  0
    5.6375   -5.7667    0.0000 O   0  0  0  0  0  0  0  0  0  0  0  0
    4.7667   -5.8667    0.0000 O   0  0  0  0  0  0  0  0  0  0  0  0
    4.1542   -4.8042    0.0000 N   0  0  0  0  0  0  0  0  0  0  0  0
    7.2167   -5.1542    0.0000 C   0  0  0  0  0  0  0  0  0  0  0  0
    6.6042   -4.0917    0.0000 C   0  0  0  0  0  0  0  0  0  0  0  0
    7.2167   -3.7375    0.0000 C   0  0  0  0  0  0  0  0  0  0  0  0
    7.8292   -4.8042    0.0000 C   0  0  0  0  0  0  0  0  0  0  0  0
    7.8292   -4.0917    0.0000 C   0  0  0  0  0  0  0  0  0  0  0  0
    3.5417   -5.1542    0.0000 C   0  0  0  0  0  0  0  0  0  0  0  0
    8.4417   -3.7292    0.0000 C   0  0  0  0  0  0  0  0  0  0  0  0
    2.9292   -4.8042    0.0000 C   0  0  0  0  0  0  0  0  0  0  0  0
    2.3125   -5.1542    0.0000 C   0  0  0  0  0  0  0  0  0  0  0  0
    1.7000   -4.8000    0.0000 C   0  0  0  0  0  0  0  0  0  0  0  0
  3  2  1  0
  4  3  1  0
  5  2  1  0
  6  2  2  0
  7  2  2  0
  8  4  2  0
  9  4  1  0
 10  5  1  0
 11  5  2  0
 12 11  1  0
 13 10  2  0
 14 12  2  0
 15  9  1  0
 16 14  1  0
 17 15  1  0
 18 17  1  0
 19 18  1  0
 13 14  1  0
M  CHG  2   1   1   3  -1
M  END
> <chembl_id>
CHEMBL1200874

> <chembl_pref_name>
TOLBUTAMIDE SODIUM, STERILE

$$$$

     RDKit          2D

 20 23  0  0  0  0  0  0  0  0999 V2000
    0.0292    0.1208    0.0000 N   0  0  0  0  0  0  0  0  0  0  0  0
    1.3375    0.1208    0.0000 C   0  0  0  0  0  0  0  0  0  0  0  0
   -0.7708    1.1375    0.0000 C   0  0  0  0  0  0  0  0  0  0  0  0
    2.1500    1.1375    0.0000 C   0  0  0  0  0  0  0  0  0  0  0  0
   -0.4833    2.4083    0.0000 C   0  0  0  0  0  0  0  0  0  0  0  0
    1.8542    2.4083    0.0000 C   0  0  0  0  0  0  0  0  0  0  0  0
   -0.6208   -1.0042    0.0000 C   0  0  0  0  0  0  0  0  0  0  0  0
    1.3292   -2.1375    0.0000 N   0  0  0  0  0  0  0  0  0  0  0  0
    0.6875    2.9833    0.0000 C   0  0  0  0  0  0  0  0  0  0  0  0
    1.9917   -1.0042    0.0000 C   0  0  0  0  0  0  0  0  0  0  0  0
    0.0375   -2.1375    0.0000 C   0  0  0  0  0  0  0  0  0  0  0  0
   -2.0208    0.7458    0.0000 C   0  0  0  0  0  0  0  0  0  0  0  0
    3.3917    0.7458    0.0000 C   0  0  0  0  0  0  0  0  0  0  0  0
    1.9792   -3.2917    0.0000 C   0  0  0  0  0  0  0  0  0  0  0  0
    2.8125    3.2958    0.0000 C   0  0  0  0  0  0  0  0  0  0  0  0
   -1.4375    3.2958    0.0000 C   0  0  0  0  0  0  0  0  0  0  0  0
    4.3417    1.6375    0.0000 C   0  0  0  0  0  0  0  0  0  0  0  0
   -2.9625    1.6375    0.0000 C   0  0  0  0  0  0  0  0  0  0  0  0
   -2.6708    2.9083    0.0000 C   0  0  0  0  0  0  0  0  0  0  0  0
    4.0500    2.9083    0.0000 C   0  0  0  0  0  0  0  0  0  0  0  0
  2  1  1  0
  3  1  1  0
  4  2  1  0
  5  3  2  0
  6  4  1  0
  7  1  1  0
  8 11  1  0
  9  5  1  0
 10  2  1  0
 11  7  1  0
 12  3  1  0
 13  4  2  0
 14  8  1  0
 15  6  2  0
 16  5  1  0
 17 13  1  0
 18 12  2  0
 19 18  1  0
 20 17  2  0
 10  8  1  0
  6  9  1  0
 16 19  2  0
 15 20  1  0
M  END
> <chembl_id>
CHEMBL6437

> <chembl_pref_name>
MIANSERIN

$$$$

     RDKit          2D

 20 21  0  0  0  0  0  0  0  0999 V2000
   -6.4514    1.3949    0.0000 C   0  0  0  0  0  0  0  0  0  0  0  0
   -7.1658    0.9824    0.0000 C   0  0  0  0  0  0  0  0  0  0  0  0
   -7.1658    0.1574    0.0000 C   0  0  0  0  0  0  0  0  0  0  0  0
   -6.4514   -0.2551    0.0000 C   0  0  0  0  0  0  0  0  0  0  0  0
   -5.7369    0.1574    0.0000 C   0  0  0  0  0  0  0  0  0  0  0  0
   -5.7369    0.9824    0.0000 N   0  0  0  0  0  0  0  0  0  0  0  0
   -5.0224    1.3949    0.0000 C   0  0  0  0  0  0  0  0  0  0  0  0
   -4.3080    0.9824    0.0000 C   0  0  0  0  0  0  0  0  0  0  0  0
   -3.5935    1.3949    0.0000 C   0  0  0  0  0  0  0  0  0  0  0  0
   -2.8790    0.9824    0.0000 O   0  0  0  0  0  0  0  0  0  0  0  0
   -2.1645    1.3949    0.0000 C   0  0  0  0  0  0  0  0  0  0  0  0
   -1.4501    0.9824    0.0000 C   0  0  0  0  0  0  0  0  0  0  0  0
   -0.7356    1.3949    0.0000 C   0  0  0  0  0  0  0  0  0  0  0  0
   -0.0211    0.9824    0.0000 C   0  0  0  0  0  0  0  0  0  0  0  0
    0.6933    1.3949    0.0000 C   0  0  0  0  0  0  0  0  0  0  0  0
   -0.0211    0.1574    0.0000 C   0  0  0  0  0  0  0  0  0  0  0  0
    0.6933   -0.2551    0.0000 C   0  0  0  0  0  0  0  0  0  0  0  0
    1.4078    0.1574    0.0000 C   0  0  0  0  0  0  0  0  0  0  0  0
    1.4078    0.9824    0.0000 C   0  0  0  0  0  0  0  0  0  0  0  0
    2.1223   -0.2551    0.0000 Cl  0  0  0  0  0  0  0  0  0  0  0  0
  1  2  1  0
  2  3  1  0
  3  4  1  0
  4  5  1  0
  5  6  1  0
  1  6  1  0
  7  8  1  0
  8  9  1  0
  9 10  1  0
 10 11  1  0
 11 12  1  0
 12 13  1  0
 13 14  1  0
  6  7  1  0
 16 17  1  0
 17 18  2  0
 18 19  1  0
 15 19  2  0
 15 14  1  0
 14 16  2  0
 18 20  1  0
M  END
> <chembl_id>
CHEMBL462605

> <chembl_pref_name>
PITOLISANT

$$$$

     RDKit          2D

 20 22  0  0  0  0  0  0  0  0999 V2000
    3.5625   -5.6417    0.0000 C   0  0  0  0  0  0  0  0  0  0  0  0
    2.9125   -5.3292    0.0000 C   0  0  0  0  0  0  0  0  0  0  0  0
    4.2042   -5.3167    0.0000 C   0  0  0  0  0  0  0  0  0  0  0  0
    3.2042   -4.0667    0.0000 C   0  0  0  0  0  0  0  0  0  0  0  0
    3.9042   -4.0667    0.0000 C   0  0  0  0  0  0  0  0  0  0  0  0
    2.7625   -4.6292    0.0000 C   0  0  0  0  0  0  0  0  0  0  0  0
    4.3500   -4.6292    0.0000 C   0  0  0  0  0  0  0  0  0  0  0  0
    4.8250   -7.7375    0.0000 N   0  0  0  0  0  0  0  0  0  0  0  0
    3.5667   -6.3417    0.0000 C   0  0  0  0  0  0  0  0  0  0  0  0
    2.3917   -5.8042    0.0000 C   0  0  0  0  0  0  0  0  0  0  0  0
    4.7167   -5.7917    0.0000 C   0  0  0  0  0  0  0  0  0  0  0  0
    2.0667   -4.4167    0.0000 C   0  0  0  0  0  0  0  0  0  0  0  0
    5.0375   -4.4167    0.0000 C   0  0  0  0  0  0  0  0  0  0  0  0
    4.2000   -7.3917    0.0000 C   0  0  0  0  0  0  0  0  0  0  0  0
    4.8167   -8.4542    0.0000 C   0  0  0  0  0  0  0  0  0  0  0  0
    4.1917   -6.6792    0.0000 C   0  0  0  0  0  0  0  0  0  0  0  0
    1.7167   -5.6000    0.0000 C   0  0  0  0  0  0  0  0  0  0  0  0
    5.3875   -5.5917    0.0000 C   0  0  0  0  0  0  0  0  0  0  0  0
    5.5500   -4.9125    0.0000 C   0  0  0  0  0  0  0  0  0  0  0  0
    1.5542   -4.9042    0.0000 C   0  0  0  0  0  0  0  0  0  0  0  0
  2  1  1  0
  3  1  1  0
  4  6  1  0
  5  7  1  0
  6  2  2  0
  7  3  2  0
  8 14  1  0
  9  1  1  0
 10  2  1  0
 11  3  1  0
 12  6  1  0
 13  7  1  0
 14 16  1  0
 15  8  1  0
 16  9  1  0
 17 10  2  0
 18 11  2  0
 19 18  1  0
 20 17  1  0
  5  4  2  0
 19 13  2  0
 20 12  2  0
M  END
> <chembl_id>
CHEMBL668

> <chembl_pref_name>
PROTRIPTYLINE

$$$$

     RDKit          2D

 20 19  0  0  0  0  0  0  0  0999 V2000
    2.0250   -1.4667    0.0000 C   0  0  0  0  0  0  0  0  0  0  0  0
    3.2500   -1.4667    0.0000 N   0  0  0  0  0  0  0  0  0  0  0  0
    1.4125   -1.8292    0.0000 C   0  0  0  0  0  0  0  0  0  0  0  0
    2.6375   -1.8250    0.0000 C   0  0  0  0  0  0  0  0  0  0  0  0
    0.8000   -1.4750    0.0000 C   0  0  0  0  0  0  0  0  0  0  0  0
    1.4125   -2.5417    0.0000 C   0  0  0  0  0  0  0  0  0  0  0  0
    2.6417   -2.5292    0.0000 C   0  0  0  0  0  0  0  0  0  0  0  0
    0.8000   -2.8917    0.0000 C   0  0  0  0  0  0  0  0  0  0  0  0
    0.1875   -1.8292    0.0000 C   0  0  0  0  0  0  0  0  0  0  0  0
    0.1875   -2.5417    0.0000 C   0  0  0  0  0  0  0  0  0  0  0  0
    3.2667   -4.0292    0.0000 C   0  0  0  0  0  0  0  0  0  0  0  0
    0.2042   -4.3792    0.0000 C   0  0  0  0  0  0  0  0  0  0  0  0
    3.2667   -3.3250    0.0000 O   0  0  0  0  0  0  0  0  0  0  0  0
    0.2042   -5.0917    0.0000 O   0  0  0  0  0  0  0  0  0  0  0  0
   -0.4125   -4.0292    0.0000 O   0  0  0  0  0  0  0  0  0  0  0  0
    3.8792   -4.3792    0.0000 O   0  0  0  0  0  0  0  0  0  0  0  0
    0.8167   -4.0292    0.0000 C   0  0  0  0  0  0  0  0  0  0  0  0
    2.6542   -4.3792    0.0000 C   0  0  0  0  0  0  0  0  0  0  0  0
    2.0417   -4.0292    0.0000 C   0  0  0  0  0  0  0  0  0  0  0  0
    1.4292   -4.3792    0.0000 C   0  0  0  0  0  0  0  0  0  0  0  0
  2  4  1  0
  3  1  1  0
  4  1  1  0
  5  3  2  0
  6  3  1  0
  7  4  1  0
  8  6  2  0
  9  5  1  0
 10  8  1  0
 10  9  2  0
 12 17  1  0
 13 11  2  0
 14 12  2  0
 15 12  1  0
 16 11  1  0
 17 20  1  0
 18 11  1  0
 19 18  1  0
 20 19  1  0
M  END
> <chembl_id>
CHEMBL1200387

> <chembl_pref_name>
AMPHETAMINE ADIPATE

$$$$

     RDKit          2D

 21 22  0  0  0  0  0  0  0  0999 V2000
   19.2708  -14.4208    0.0000 C   0  0  0  0  0  0  0  0  0  0  0  0
   19.9853  -14.0083    0.0000 C   0  0  0  0  0  0  0  0  0  0  0  0
   20.6998  -14.4208    0.0000 C   0  0  0  0  0  0  0  0  0  0  0  0
   18.5564  -14.0083    0.0000 C   0  0  0  0  0  0  0  0  0  0  0  0
   20.6972  -15.2469    0.0000 C   0  0  0  0  0  0  0  0  0  0  0  0
   21.4108  -15.6593    0.0000 C   0  0  0  0  0  0  0  0  0  0  0  0
   22.1263  -15.2468    0.0000 C   0  0  0  0  0  0  0  0  0  0  0  0
   22.1237  -14.4175    0.0000 C   0  0  0  0  0  0  0  0  0  0  0  0
   21.4094  -14.0088    0.0000 C   0  0  0  0  0  0  0  0  0  0  0  0
   18.5613  -13.1823    0.0000 C   0  0  0  0  0  0  0  0  0  0  0  0
   17.8477  -12.7698    0.0000 C   0  0  0  0  0  0  0  0  0  0  0  0
   17.1322  -13.1824    0.0000 C   0  0  0  0  0  0  0  0  0  0  0  0
   17.1349  -14.0117    0.0000 C   0  0  0  0  0  0  0  0  0  0  0  0
   17.8491  -14.4203    0.0000 C   0  0  0  0  0  0  0  0  0  0  0  0
   19.2771  -12.7721    0.0000 O   0  0  0  0  0  0  0  0  0  0  0  0
   16.4172  -12.7708    0.0000 C   0  0  0  0  0  0  0  0  0  0  0  0
   16.4161  -11.9458    0.0000 N   0  0  0  0  0  0  0  0  0  0  0  0
   15.7033  -13.1843    0.0000 N   0  0  0  0  0  0  0  0  0  0  0  0
   22.8413  -15.6583    0.0000 C   0  0  0  0  0  0  0  0  0  0  0  0
   22.8424  -16.4833    0.0000 N   0  0  0  0  0  0  0  0  0  0  0  0
   23.5552  -15.2449    0.0000 N   0  0  0  0  0  0  0  0  0  0  0  0
 12 16  1  0
  2  3  1  0
 16 17  2  0
  7  8  1  0
 16 18  1  0
  7 19  1  0
  8  9  2  0
 19 20  2  0
  9  3  1  0
 19 21  1  0
  1  4  1  0
  4 10  2  0
 10 11  1  0
  3  5  2  0
 11 12  2  0
  1  2  2  0
 12 13  1  0
  5  6  1  0
 13 14  2  0
 14  4  1  0
 10 15  1  0
  6  7  2  0
M  END
> <chembl_id>
CHEMBL1301

> <chembl_pref_name>
HYDROXYSTILBAMIDINE

$$$$

     RDKit          2D

 19 21  0  0  0  0  0  0  0  0999 V2000
   14.3605   -8.5115    0.0000 C   0  0  0  0  0  0  0  0  0  0  0  0
   15.1867   -8.5127    0.0000 C   0  0  0  0  0  0  0  0  0  0  0  0
   15.5990   -7.7989    0.0000 C   0  0  0  0  0  0  0  0  0  0  0  0
   15.1862   -7.0835    0.0000 C   0  0  0  0  0  0  0  0  0  0  0  0
   14.3569   -7.0863    0.0000 C   0  0  0  0  0  0  0  0  0  0  0  0
   13.9483   -7.8007    0.0000 C   0  0  0  0  0  0  0  0  0  0  0  0
   16.4302   -7.7959    0.0000 C   0  0  0  0  0  0  0  0  0  0  0  0
   16.9167   -8.4659    0.0000 S   0  0  0  0  0  0  0  0  0  0  0  0
   16.9171   -7.1262    0.0000 N   0  0  0  0  0  0  0  0  0  0  0  0
   17.7045   -7.3821    0.0000 C   0  0  0  0  0  0  0  0  0  0  0  0
   17.7035   -8.2071    0.0000 C   0  0  0  0  0  0  0  0  0  0  0  0
   18.4164   -8.6188    0.0000 C   0  0  0  0  0  0  0  0  0  0  0  0
   19.1308   -8.2065    0.0000 C   0  0  0  0  0  0  0  0  0  0  0  0
   19.1277   -7.3783    0.0000 C   0  0  0  0  0  0  0  0  0  0  0  0
   18.4143   -6.9704    0.0000 C   0  0  0  0  0  0  0  0  0  0  0  0
   13.1203   -7.8032    0.0000 N   0  0  0  0  0  0  0  0  0  0  0  0
   12.7042   -7.0874    0.0000 C   0  0  0  0  0  0  0  0  0  0  0  0
   13.9466   -9.2288    0.0000 F   0  0  0  0  0  0  0  0  0  0  0  0
   19.8486   -8.6193    0.0000 O   0  0  0  0  0  0  0  0  0  0  0  0
  9  7  2  0
  3  7  1  0
  4  5  1  0
  2  3  1  0
 10 11  2  0
  5  6  2  0
 11 12  1  0
  6  1  1  0
 12 13  2  0
  7  8  1  0
 13 14  1  0
  1  2  2  0
 14 15  2  0
 15 10  1  0
  3  4  2  0
  6 16  1  0
 16 17  1  0
  8 11  1  0
  1 18  1  0
 10  9  1  0
 13 19  1  0
M  END
> <chembl_id>
CHEMBL579205

> <chembl_pref_name>
FLUTEMETAMOL

$$$$

     RDKit          2D

 19 20  0  0  0  0  0  0  0  0999 V2000
    3.2375   -1.9750    0.0000 C   0  0  0  0  0  0  0  0  0  0  0  0
    3.8542   -2.3292    0.0000 O   0  0  0  0  0  0  0  0  0  0  0  0
    3.2292   -1.2792    0.0000 O   0  0  0  0  0  0  0  0  0  0  0  0
    2.6250   -2.3417    0.0000 C   0  0  0  0  0  0  0  0  0  0  0  0
    5.7000   -1.9417    0.0000 N   0  0  0  0  0  0  0  0  0  0  0  0
    5.0875   -2.3167    0.0000 C   0  0  0  0  0  0  0  0  0  0  0  0
    4.4667   -1.9625    0.0000 C   0  0  0  0  0  0  0  0  0  0  0  0
    6.3042   -2.3125    0.0000 C   0  0  0  0  0  0  0  0  0  0  0  0
    2.0042   -1.9917    0.0000 C   0  0  0  0  0  0  0  0  0  0  0  0
    2.6292   -3.0417    0.0000 C   0  0  0  0  0  0  0  0  0  0  0  0
    6.9167   -1.9542    0.0000 C   0  0  0  0  0  0  0  0  0  0  0  0
    6.3000   -3.0292    0.0000 C   0  0  0  0  0  0  0  0  0  0  0  0
    4.4542   -1.2625    0.0000 C   0  0  0  0  0  0  0  0  0  0  0  0
    1.3917   -2.3542    0.0000 C   0  0  0  0  0  0  0  0  0  0  0  0
    2.0250   -3.4125    0.0000 C   0  0  0  0  0  0  0  0  0  0  0  0
    6.9042   -3.3917    0.0000 C   0  0  0  0  0  0  0  0  0  0  0  0
    7.5250   -2.3250    0.0000 C   0  0  0  0  0  0  0  0  0  0  0  0
    1.4042   -3.0542    0.0000 C   0  0  0  0  0  0  0  0  0  0  0  0
    7.5167   -3.0417    0.0000 C   0  0  0  0  0  0  0  0  0  0  0  0
  2  1  1  0
  3  1  2  0
  4  1  1  0
  5  6  1  0
  6  7  1  0
  7  2  1  0
  8  5  1  0
  9  4  2  0
 10  4  1  0
 11  8  1  0
 12  8  1  0
 13  7  1  0
 14  9  1  0
 15 10  2  0
 16 12  1  0
 17 11  1  0
 18 14  2  0
 19 17  1  0
 18 15  1  0
 19 16  1  0
M  END
> <chembl_id>
CHEMBL1197

> <chembl_pref_name>
HEXYLCAINE

$$$$

     RDKit          2D

 11  9  0  0  0  0  0  0  0  0999 V2000
    5.7875  -16.6563    0.0000 Cl  0  0  0  0  0  0  0  0  0  0  0  0
    2.6304  -18.9099    0.0000 C   0  0  0  0  0  0  0  0  0  0  0  0
    3.3444  -18.4966    0.0000 C   0  0  0  0  0  0  0  0  0  0  0  0
    4.0584  -18.9058    0.0000 C   0  0  0  0  0  0  0  0  0  0  0  0
    4.7724  -18.4924    0.0000 C   0  0  0  0  0  0  0  0  0  0  0  0
    5.4863  -18.9016    0.0000 C   0  0  0  0  0  0  0  0  0  0  0  0
    5.4912  -19.7232    0.0000 O   0  0  0  0  0  0  0  0  0  0  0  0
    6.1999  -18.4865    0.0000 O   0  0  0  0  0  0  0  0  0  0  0  0
    1.9155  -18.5009    0.0000 O   0  0  0  0  0  0  0  0  0  0  0  0
    2.6314  -19.7375    0.0000 O   0  0  0  0  0  0  0  0  0  0  0  0
    3.3426  -17.6698    0.0000 N   0  0  0  0  0  0  0  0  0  0  0  0
  3  4  1  0
  6  7  1  0
  6  8  2  0
  4  5  1  0
  2  9  1  0
  2 10  2  0
  2  3  1  0
  3 11  1  1
  5  6  1  0
M  END
> <chembl_id>
CHEMBL1255943

> <chembl_pref_name>
GLUTAMIC ACID HYDROCHLORIDE

$$$$

     RDKit          2D

 11  9  0  0  0  0  0  0  0  0999 V2000
    3.8042   -4.1000    0.0000 Cl  0  0  0  0  0  0  0  0  0  0  0  0
    3.8167   -4.9667    0.0000 N   0  0  0  0  0  0  0  0  0  0  0  0
    6.2667   -5.0000    0.0000 C   0  0  0  0  0  0  0  0  0  0  0  0
    6.2625   -5.7125    0.0000 O   0  0  0  0  0  0  0  0  0  0  0  0
    5.6542   -4.6375    0.0000 O   0  0  0  0  0  0  0  0  0  0  0  0
    5.0417   -4.9875    0.0000 C   0  0  0  0  0  0  0  0  0  0  0  0
    4.4292   -4.6250    0.0000 C   0  0  0  0  0  0  0  0  0  0  0  0
    3.4625   -5.5792    0.0000 C   0  0  0  0  0  0  0  0  0  0  0  0
    4.1667   -5.5792    0.0000 C   0  0  0  0  0  0  0  0  0  0  0  0
    3.2083   -4.6083    0.0000 C   0  0  0  0  0  0  0  0  0  0  0  0
    6.8917   -4.6500    0.0000 C   0  0  0  0  0  0  0  0  0  0  0  0
  3  5  1  0
  4  3  2  0
  5  6  1  0
  6  7  1  0
  7  2  1  0
  8  2  1  0
  9  2  1  0
 10  2  1  0
 11  3  1  0
M  CHG  2   1  -1   2   1
M  END
> <chembl_id>
CHEMBL1184

> <chembl_pref_name>
ACETYLCHOLINE CHLORIDE

$$$$

     RDKit          2D

  7  6  0  0  0  0  0  0  0  0999 V2000
    0.0917   -8.3125    0.0000 C   0  0  0  0  0  0  0  0  0  0  0  0
    0.7042   -7.9542    0.0000 C   0  0  0  0  0  0  0  0  0  0  0  0
   -0.5250   -7.9542    0.0000 F   0  0  0  0  0  0  0  0  0  0  0  0
    0.4417   -8.9250    0.0000 F   0  0  0  0  0  0  0  0  0  0  0  0
   -0.2708   -8.9250    0.0000 F   0  0  0  0  0  0  0  0  0  0  0  0
    0.7042   -7.2500    0.0000 Br  0  0  0  0  0  0  0  0  0  0  0  0
    1.3167   -8.3125    0.0000 Cl  0  0  0  0  0  0  0  0  0  0  0  0
  2  1  1  0
  3  1  1  0
  4  1  1  0
  5  1  1  0
  6  2  1  0
  7  2  1  0
M  END
> <chembl_id>
CHEMBL931

> <chembl_pref_name>
HALOTHANE

$$$$

     RDKit          2D

 13 13  0  0  0  0  0  0  0  0999 V2000
   -1.7125   -0.5667    0.0000 C   0  0  0  0  0  0  0  0  0  0  0  0
   -0.8583    0.6458    0.0000 N   0  0  0  0  0  0  0  0  0  0  0  0
   -1.2250   -2.0375    0.0000 N   0  0  0  0  0  0  0  0  0  0  0  0
   -3.1375   -0.0792    0.0000 C   0  0  0  0  0  0  0  0  0  0  0  0
   -3.1375    1.3583    0.0000 N   0  0  0  0  0  0  0  0  0  0  0  0
   -1.7333    1.8333    0.0000 C   0  0  0  0  0  0  0  0  0  0  0  0
    0.6792    0.6458    0.0000 C   0  0  0  0  0  0  0  0  0  0  0  0
    0.2417   -2.3292    0.0000 O   0  0  0  0  0  0  0  0  0  0  0  0
   -2.2083   -3.1792    0.0000 O   0  0  0  0  0  0  0  0  0  0  0  0
   -1.2583    3.2833    0.0000 C   0  0  0  0  0  0  0  0  0  0  0  0
    1.4000    1.9708    0.0000 C   0  0  0  0  0  0  0  0  0  0  0  0
    0.5792    3.2583    0.0000 O   0  0  0  0  0  0  0  0  0  0  0  0
    2.9042    2.0458    0.0000 C   0  0  0  0  0  0  0  0  0  0  0  0
  2  1  1  0
  3  1  1  0
  4  1  2  0
  5  4  1  0
  6  2  1  0
  7  2  1  0
  8  3  1  0
  9  3  2  0
 10  6  1  0
 11  7  1  0
 12 11  1  0
 13 11  1  0
  6  5  2  0
M  CHG  2   3   1   8  -1
M  END
> <chembl_id>
CHEMBL498847

> <chembl_pref_name>
SECNIDAZOLE

$$$$

     RDKit          2D

 19 21  0  0  0  0  0  0  0  0999 V2000
    5.1125   -5.5292    0.0000 N   0  0  0  0  0  0  0  0  0  0  0  0
    4.4917   -5.2500    0.0000 C   0  0  0  0  0  0  0  0  0  0  0  0
    4.2917   -4.5417    0.0000 C   0  0  0  0  0  0  0  0  0  0  0  0
    5.1125   -6.3167    0.0000 C   0  0  0  0  0  0  0  0  0  0  0  0
    5.7042   -5.2500    0.0000 C   0  0  0  0  0  0  0  0  0  0  0  0
    4.6917   -3.9542    0.0000 C   0  0  0  0  0  0  0  0  0  0  0  0
    5.8917   -4.5042    0.0000 C   0  0  0  0  0  0  0  0  0  0  0  0
    5.4667   -3.9500    0.0000 C   0  0  0  0  0  0  0  0  0  0  0  0
    4.5625   -6.6625    0.0000 O   0  0  0  0  0  0  0  0  0  0  0  0
    4.3167   -3.3542    0.0000 O   0  0  0  0  0  0  0  0  0  0  0  0
    5.6917   -6.6667    0.0000 N   0  0  0  0  0  0  0  0  0  0  0  0
    3.9667   -5.7625    0.0000 C   0  0  0  0  0  0  0  0  0  0  0  0
    3.5917   -4.3667    0.0000 C   0  0  0  0  0  0  0  0  0  0  0  0
    6.2042   -5.7292    0.0000 C   0  0  0  0  0  0  0  0  0  0  0  0
    6.5625   -4.3667    0.0000 C   0  0  0  0  0  0  0  0  0  0  0  0
    3.2792   -5.5542    0.0000 C   0  0  0  0  0  0  0  0  0  0  0  0
    3.0917   -4.8750    0.0000 C   0  0  0  0  0  0  0  0  0  0  0  0
    6.8875   -5.5542    0.0000 C   0  0  0  0  0  0  0  0  0  0  0  0
    7.0542   -4.8750    0.0000 C   0  0  0  0  0  0  0  0  0  0  0  0
  2  1  1  0
  3  2  1  0
  4  1  1  0
  5  1  1  0
  6  3  1  0
  7  5  1  0
  8  7  1  0
  9  4  2  0
 10  6  2  0
 11  4  1  0
 12  2  2  0
 13  3  2  0
 14  5  2  0
 15  7  2  0
 16 12  1  0
 17 16  2  0
 18 14  1  0
 19 18  2  0
  8  6  1  0
 19 15  1  0
 17 13  1  0
M  END
> <chembl_id>
CHEMBL1068

> <chembl_pref_name>
OXCARBAZEPINE

$$$$

     RDKit          2D

 19 19  0  0  0  0  0  0  0  0999 V2000
   -2.4333   -3.3167    0.0000 Cl  0  0  0  0  0  0  0  0  0  0  0  0
    0.1292   -0.6875    0.0000 C   0  0  0  0  0  0  0  0  0  0  0  0
    2.0792    1.1958    0.0000 C   0  0  0  0  0  0  0  0  0  0  0  0
   -2.1458   -1.2042    0.0000 C   0  0  0  0  0  0  0  0  0  0  0  0
    1.4167   -1.0625    0.0000 C   0  0  0  0  0  0  0  0  0  0  0  0
   -0.1708    0.6000    0.0000 C   0  0  0  0  0  0  0  0  0  0  0  0
   -2.5583    0.0625    0.0000 N   0  0  0  0  0  0  0  0  0  0  0  0
    0.7917    1.5875    0.0000 C   0  0  0  0  0  0  0  0  0  0  0  0
    2.3917   -0.1667    0.0000 C   0  0  0  0  0  0  0  0  0  0  0  0
   -0.8583   -1.6000    0.0000 C   0  0  0  0  0  0  0  0  0  0  0  0
   -3.2583   -2.0167    0.0000 N   0  0  0  0  0  0  0  0  0  0  0  0
    3.0375    2.1208    0.0000 C   0  0  0  0  0  0  0  0  0  0  0  0
   -3.9333    0.0625    0.0000 C   0  0  0  0  0  0  0  0  0  0  0  0
    1.7417   -2.3375    0.0000 C   0  0  0  0  0  0  0  0  0  0  0  0
   -1.4625    0.9083    0.0000 C   0  0  0  0  0  0  0  0  0  0  0  0
   -4.3458   -1.2417    0.0000 C   0  0  0  0  0  0  0  0  0  0  0  0
    3.1792    3.5833    0.0000 C   0  0  0  0  0  0  0  0  0  0  0  0
    2.0792    3.2208    0.0000 C   0  0  0  0  0  0  0  0  0  0  0  0
    4.3417    1.7708    0.0000 C   0  0  0  0  0  0  0  0  0  0  0  0
  3  8  2  0
  4 10  1  0
  5  2  1  0
  6  2  2  0
  7  4  2  0
  8  6  1  0
  9  5  2  0
 10  2  1  0
 11  4  1  0
 12  3  1  0
 13  7  1  0
 14  5  1  0
 15  6  1  0
 16 11  1  0
 17 12  1  0
 18 12  1  0
 19 12  1  0
  9  3  1  0
 16 13  1  0
M  END
> <chembl_id>
CHEMBL1256400

> <chembl_pref_name>
XYLOMETAZOLINE HYDROCHLORIDE

$$$$

     RDKit          2D

 19 20  0  0  0  0  0  0  0  0999 V2000
    0.9625  -10.0500    0.0000 S   0  0  0  0  0  0  0  0  0  0  0  0
    1.5750   -9.6917    0.0000 N   0  0  0  0  0  0  0  0  0  0  0  0
    2.1875  -10.0542    0.0000 C   0  0  0  0  0  0  0  0  0  0  0  0
    0.3500   -9.6917    0.0000 C   0  0  0  0  0  0  0  0  0  0  0  0
    2.8000   -9.7000    0.0000 N   0  0  0  0  0  0  0  0  0  0  0  0
    2.1875  -10.7667    0.0000 N   0  0  0  0  0  0  0  0  0  0  0  0
    0.6125  -10.6625    0.0000 O   0  0  0  0  0  0  0  0  0  0  0  0
    1.3250  -10.6625    0.0000 O   0  0  0  0  0  0  0  0  0  0  0  0
    3.4125  -10.7667    0.0000 C   0  0  0  0  0  0  0  0  0  0  0  0
   -0.2625  -10.0417    0.0000 C   0  0  0  0  0  0  0  0  0  0  0  0
    0.3542   -8.9875    0.0000 C   0  0  0  0  0  0  0  0  0  0  0  0
    3.4125  -10.0542    0.0000 C   0  0  0  0  0  0  0  0  0  0  0  0
    2.8000  -11.1167    0.0000 C   0  0  0  0  0  0  0  0  0  0  0  0
   -0.8708   -8.9792    0.0000 C   0  0  0  0  0  0  0  0  0  0  0  0
   -1.4833   -8.6250    0.0000 N   0  0  0  0  0  0  0  0  0  0  0  0
   -0.8750   -9.6917    0.0000 C   0  0  0  0  0  0  0  0  0  0  0  0
   -0.2583   -8.6292    0.0000 C   0  0  0  0  0  0  0  0  0  0  0  0
    4.0250  -11.1167    0.0000 O   0  0  0  0  0  0  0  0  0  0  0  0
    4.6417  -10.7667    0.0000 C   0  0  0  0  0  0  0  0  0  0  0  0
  2  1  1  0
  3  2  1  0
  4  1  1  0
  5  3  2  0
  6  3  1  0
  7  1  2  0
  8  1  2  0
  9 13  1  0
 10  4  2  0
 11  4  1  0
 12  5  1  0
 13  6  2  0
 14 17  1  0
 15 14  1  0
 16 10  1  0
 17 11  2  0
 18  9  1  0
 19 18  1  0
 14 16  2  0
  9 12  2  0
M  END
> <chembl_id>
CHEMBL1200359

> <chembl_pref_name>
SULFAMETER

$$$$

     RDKit          2D

  4  3  0  0  0  0  0  0  0  0999 V2000
    0.1923   -0.3572    0.0000 C   0  0  0  0  0  0  0  0  0  0  0  0
    1.0173   -0.3572    0.0000 O   0  0  0  0  0  0  0  0  0  0  0  0
   -0.2202    0.3572    0.0000 C   0  0  0  0  0  0  0  0  0  0  0  0
   -1.0452    0.3572    0.0000 O   0  0  0  0  0  0  0  0  0  0  0  0
  1  2  1  0
  1  3  1  0
  3  4  1  0
M  END
> <chembl_id>
CHEMBL457299

> <chembl_pref_name>
MACROGOL

$$$$

     RDKit          2D

  9  6  0  0  0  0  0  0  0  0999 V2000
    5.8875   -6.6417    0.0000 Mg  0  0  0  0  0 15  0  0  0  0  0  0
    4.3667   -6.6292    0.0000 C   0  0  0  0  0  0  0  0  0  0  0  0
    5.0542   -6.6292    0.0000 O   0  0  0  0  0  0  0  0  0  0  0  0
    3.9917   -5.9917    0.0000 O   0  0  0  0  0  0  0  0  0  0  0  0
    3.9917   -7.2167    0.0000 C   0  0  0  0  0  0  0  0  0  0  0  0
    7.6500   -6.6292    0.0000 C   0  0  0  0  0  0  0  0  0  0  0  0
    6.9542   -6.6292    0.0000 O   0  0  0  0  0  0  0  0  0  0  0  0
    8.0167   -5.9917    0.0000 O   0  0  0  0  0  0  0  0  0  0  0  0
    8.0167   -7.2167    0.0000 C   0  0  0  0  0  0  0  0  0  0  0  0
  3  2  1  0
  4  2  2  0
  5  2  1  0
  7  6  1  0
  8  6  2  0
  9  6  1  0
M  CHG  3   1   2   3  -1   7  -1
M  END
> <chembl_id>
CHEMBL1200691

> <chembl_pref_name>
MAGNESIUM ACETATE

$$$$

     RDKit          2D

 14 13  0  0  0  0  0  0  0  0999 V2000
   -0.0500   -1.2542    0.0000 C   0  0  0  0  0  0  0  0  0  0  0  0
   -1.2375   -1.9417    0.0000 P   0  0  0  0  0  0  0  0  0  0  0  0
    1.1542   -1.9375    0.0000 P   0  0  0  0  0  0  0  0  0  0  0  0
   -2.0708   -0.8667    0.0000 O   0  0  0  0  0  0  0  0  0  0  0  0
    1.9292   -0.8042    0.0000 O   0  0  0  0  0  0  0  0  0  0  0  0
    0.4417    0.0458    0.0000 O   0  0  0  0  0  0  0  0  0  0  0  0
   -1.0625   -3.3250    0.0000 O   0  0  0  0  0  0  0  0  0  0  0  0
    1.1667   -3.3375    0.0000 O   0  0  0  0  0  0  0  0  0  0  0  0
    2.1417   -2.9042    0.0000 O   0  0  0  0  0  0  0  0  0  0  0  0
   -2.0708   -3.0542    0.0000 O   0  0  0  0  0  0  0  0  0  0  0  0
   -0.4000    0.0833    0.0000 C   0  0  0  0  0  0  0  0  0  0  0  0
    1.2625    3.4333    0.0000 N   0  0  0  0  0  0  0  0  0  0  0  0
    0.2667    2.4333    0.0000 C   0  0  0  0  0  0  0  0  0  0  0  0
    0.5792    1.0708    0.0000 C   0  0  0  0  0  0  0  0  0  0  0  0
  2  1  1  0
  3  1  1  0
  4  2  2  0
  5  3  2  0
  6  1  1  0
  7  2  1  0
  8  3  1  0
  9  3  1  0
 10  2  1  0
 11  1  1  0
 12 13  1  0
 13 14  1  0
 14 11  1  0
M  END
> <chembl_id>
CHEMBL870

> <chembl_pref_name>
ALENDRONIC ACID

$$$$

     RDKit          2D

 10  9  0  0  0  0  0  0  0  0999 V2000
   -7.8670   -0.3241    0.0000 C   0  0  0  0  0  0  0  0  0  0  0  0
   -7.1525    0.0884    0.0000 O   0  0  0  0  0  0  0  0  0  0  0  0
   -6.4380   -0.3241    0.0000 C   0  0  0  0  0  0  0  0  0  0  0  0
   -5.7236    0.0884    0.0000 C   0  0  0  0  0  0  0  0  0  0  0  0
   -5.0091   -0.3241    0.0000 C   0  0  0  0  0  0  0  0  0  0  0  0
   -4.2946    0.0884    0.0000 C   0  0  0  0  0  0  0  0  0  0  0  0
   -3.5801   -0.3241    0.0000 O   0  0  0  0  0  0  0  0  0  0  0  0
   -2.8657    0.0884    0.0000 C   0  0  0  0  0  0  0  0  0  0  0  0
   -4.2946    0.9134    0.0000 O   0  0  0  0  0  0  0  0  0  0  0  0
   -6.4380   -1.1491    0.0000 O   0  0  0  0  0  0  0  0  0  0  0  0
  1  2  1  0
  2  3  1  0
  3  4  1  0
  4  5  2  0
  5  6  1  0
  6  7  1  0
  7  8  1  0
  6  9  2  0
  3 10  2  0
M  END
> <chembl_id>
CHEMBL2107333

> <chembl_pref_name>
DIMETHYL FUMARATE

$$$$

     RDKit          2D

 21 23  0  0  1  0  0  0  0  0999 V2000
    0.6375    0.3875    0.0000 N   0  0  0  0  0  0  0  0  0  0  0  0
   -0.5333    0.7833    0.0000 C   0  0  0  0  0  0  0  0  0  0  0  0
    1.0417   -0.8417    0.0000 C   0  0  0  0  0  0  0  0  0  0  0  0
   -0.5208    2.2458    0.0000 C   0  0  0  0  0  0  0  0  0  0  0  0
   -1.6833    0.0958    0.0000 N   0  0  0  0  0  0  0  0  0  0  0  0
    0.6167    2.6458    0.0000 N   0  0  0  0  0  0  0  0  0  0  0  0
    2.3292   -1.2750    0.0000 C   0  0  0  0  0  0  0  0  0  0  0  0
    1.4375    1.5458    0.0000 C   0  0  0  0  0  0  0  0  0  0  0  0
   -2.8833    2.1833    0.0000 N   0  0  0  0  0  0  0  0  0  0  0  0
    0.3375   -1.8625    0.0000 O   0  0  0  0  0  0  0  0  0  0  0  0
   -1.6458    2.9000    0.0000 C   0  0  0  0  0  0  0  0  0  0  0  0
   -2.8833    0.7708    0.0000 C   0  0  0  0  0  0  0  0  0  0  0  0
    2.3167   -2.6167    0.0000 C   0  0  0  0  0  0  0  0  0  0  0  0
    1.0292   -2.9042    0.0000 C   0  0  0  0  0  0  0  0  0  0  0  0
    3.4042   -0.4917    0.0000 O   0  0  0  0  0  0  0  0  0  0  0  0
   -4.0000    0.1125    0.0000 N   0  0  0  0  0  0  0  0  0  0  0  0
    3.3542   -3.4417    0.0000 O   0  0  0  0  0  0  0  0  0  0  0  0
   -1.6458    4.1875    0.0000 O   0  0  0  0  0  0  0  0  0  0  0  0
    0.5417   -4.1292    0.0000 C   0  0  0  0  0  0  0  0  0  0  0  0
    1.3500   -5.1667    0.0000 O   0  0  0  0  0  0  0  0  0  0  0  0
   -2.6500    4.9542    0.0000 C   0  0  0  0  0  0  0  0  0  0  0  0
  2  1  1  0
  3  1  1  1
  4  2  2  0
  5  2  1  0
  6  8  2  0
  7  3  1  0
  8  1  1  0
  9 12  1  0
 10  3  1  0
 11  4  1  0
 12  5  2  0
 13  7  1  0
 14 10  1  0
  7 15  1  1
 16 12  1  0
 13 17  1  6
 18 11  1  0
 14 19  1  1
 20 19  1  0
 21 18  1  0
  4  6  1  0
 14 13  1  0
 11  9  2  0
M  END
> <chembl_id>
CHEMBL1201112

> <chembl_pref_name>
NELARABINE

$$$$

     RDKit          2D

  8  7  0  0  0  0  0  0  0  0999 V2000
   -1.0708   -1.0625    0.0000 C   0  0  0  0  0  0  0  0  0  0  0  0
   -0.4583   -0.7125    0.0000 C   0  0  0  0  0  0  0  0  0  0  0  0
   -1.4250   -1.6667    0.0000 F   0  0  0  0  0  0  0  0  0  0  0  0
   -0.7208   -1.6750    0.0000 F   0  0  0  0  0  0  0  0  0  0  0  0
   -1.6833   -0.7125    0.0000 O   0  0  0  0  0  0  0  0  0  0  0  0
    0.1542   -1.0667    0.0000 Cl  0  0  0  0  0  0  0  0  0  0  0  0
   -0.4583   -0.0042    0.0000 Cl  0  0  0  0  0  0  0  0  0  0  0  0
   -2.2958   -1.0667    0.0000 C   0  0  0  0  0  0  0  0  0  0  0  0
  2  1  1  0
  3  1  1  0
  4  1  1  0
  5  1  1  0
  6  2  1  0
  7  2  1  0
  8  5  1  0
M  END
> <chembl_id>
CHEMBL1341

> <chembl_pref_name>
METHOXYFLURANE

$$$$

     RDKit          2D

 14 12  0  0  0  0  0  0  0  0999 V2000
    6.9674  -10.7655    0.0000 S   0  0  0  0  0  0  0  0  0  0  0  0
    4.8320  -10.3502    0.0000 N   0  0  0  0  0  0  0  0  0  0  0  0
    6.2572  -10.3501    0.0000 C   0  0  0  0  0  0  0  0  0  0  0  0
    5.5422  -10.7656    0.0000 C   0  0  0  0  0  0  0  0  0  0  0  0
   11.8721  -10.7072    0.0000 O   0  0  0  0  0  0  0  0  0  0  0  0
   11.1559   -9.4706    0.0000 O   0  0  0  0  0  0  0  0  0  0  0  0
    8.2963  -10.2969    0.0000 O   0  0  0  0  0  0  0  0  0  0  0  0
    9.0125  -11.5335    0.0000 O   0  0  0  0  0  0  0  0  0  0  0  0
   10.4399  -11.5334    0.0000 O   0  0  0  0  0  0  0  0  0  0  0  0
    9.7285   -9.4707    0.0000 O   0  0  0  0  0  0  0  0  0  0  0  0
    9.0125  -10.7083    0.0000 C   0  0  0  0  0  0  0  0  0  0  0  0
    9.7270  -10.2958    0.0000 C   0  0  0  0  0  0  0  0  0  0  0  0
   10.4414  -10.7083    0.0000 C   0  0  0  0  0  0  0  0  0  0  0  0
   11.1559  -10.2958    0.0000 C   0  0  0  0  0  0  0  0  0  0  0  0
  2  4  1  0
  3  1  1  0
  4  3  1  0
 11  8  2  0
 12 10  1  0
 13  9  1  0
 11  7  1  0
 13 14  1  0
 12 13  1  0
 14  5  1  0
 11 12  1  0
 14  6  2  0
M  END
> <chembl_id>
CHEMBL2062263

> <chembl_pref_name>
CYSTEAMINE BITARTRATE

$$$$

     RDKit          2D

 16 16  0  0  0  0  0  0  0  0999 V2000
   -2.1583   -0.2792    0.0000 C   0  0  0  0  0  0  0  0  0  0  0  0
   -1.5500   -1.3417    0.0000 N   0  0  0  0  0  0  0  0  0  0  0  0
   -0.9375   -0.2792    0.0000 N   0  0  0  0  0  0  0  0  0  0  0  0
   -2.1583   -0.9917    0.0000 C   0  0  0  0  0  0  0  0  0  0  0  0
   -1.5500    0.0708    0.0000 C   0  0  0  0  0  0  0  0  0  0  0  0
   -0.9375   -0.9917    0.0000 C   0  0  0  0  0  0  0  0  0  0  0  0
   -2.7750    0.0708    0.0000 C   0  0  0  0  0  0  0  0  0  0  0  0
   -2.7750   -1.3417    0.0000 O   0  0  0  0  0  0  0  0  0  0  0  0
   -1.5500    0.7833    0.0000 O   0  0  0  0  0  0  0  0  0  0  0  0
   -0.3208   -1.3417    0.0000 O   0  0  0  0  0  0  0  0  0  0  0  0
   -2.5208    0.3333    0.0000 C   0  0  0  0  0  0  0  0  0  0  0  0
   -2.1708    0.9500    0.0000 C   0  0  0  0  0  0  0  0  0  0  0  0
   -2.5208    1.5625    0.0000 C   0  0  0  0  0  0  0  0  0  0  0  0
   -3.3958   -0.2792    0.0000 C   0  0  0  0  0  0  0  0  0  0  0  0
   -4.0083    0.0708    0.0000 C   0  0  0  0  0  0  0  0  0  0  0  0
   -3.3875   -0.9917    0.0000 C   0  0  0  0  0  0  0  0  0  0  0  0
  2  4  1  0
  3  5  1  0
  4  1  1  0
  5  1  1  0
  6  3  1  0
  7  1  1  0
  8  4  2  0
  9  5  2  0
 10  6  2  0
 11  1  1  0
 12 11  1  0
 13 12  2  0
 14  7  1  0
 15 14  1  0
 16 14  1  0
  6  2  1  0
M  END
> <chembl_id>
CHEMBL454

> <chembl_pref_name>
BUTALBITAL

$$$$

     RDKit          2D

  5  3  0  0  0  0  0  0  0  0999 V2000
    1.2458    0.4667    0.0000 Cl  0  0  0  0  0  0  0  0  0  0  0  0
    1.3333    1.5042    0.0000 C   0  0  0  0  0  0  0  0  0  0  0  0
    1.3333    2.2042    0.0000 N   0  0  0  0  0  0  0  0  0  0  0  0
    1.9542    1.1542    0.0000 N   0  0  0  0  0  0  0  0  0  0  0  0
    0.7250    1.1375    0.0000 N   0  0  0  0  0  0  0  0  0  0  0  0
  3  2  2  0
  4  2  1  0
  5  2  1  0
M  END
> <chembl_id>
CHEMBL1200728

> <chembl_pref_name>
GUANIDINE HYDROCHLORIDE

$$$$

     RDKit          2D

 14 13  0  0  0  0  0  0  0  0999 V2000
    8.3000   -4.9375    0.0000 Na  0  0  0  0  0 15  0  0  0  0  0  0
    6.3042   -4.9375    0.0000 C   0  0  0  0  0  0  0  0  0  0  0  0
    6.9250   -4.5792    0.0000 S   0  0  0  0  0  0  0  0  0  0  0  0
    5.7375   -4.5167    0.0000 S   0  0  0  0  0  0  0  0  0  0  0  0
    5.1625   -4.9375    0.0000 C   0  0  0  0  0  0  0  0  0  0  0  0
    6.0875   -5.6125    0.0000 N   0  0  0  0  0  0  0  0  0  0  0  0
    5.3792   -5.6125    0.0000 N   0  0  0  0  0  0  0  0  0  0  0  0
    4.5500   -4.5792    0.0000 N   0  0  0  0  0  0  0  0  0  0  0  0
    7.5417   -4.9292    0.0000 N   0  0  0  0  0  0  0  0  0  0  0  0
    3.9292   -4.9250    0.0000 C   0  0  0  0  0  0  0  0  0  0  0  0
    6.5750   -3.9667    0.0000 O   0  0  0  0  0  0  0  0  0  0  0  0
    7.2792   -3.9667    0.0000 O   0  0  0  0  0  0  0  0  0  0  0  0
    3.9250   -5.6292    0.0000 O   0  0  0  0  0  0  0  0  0  0  0  0
    3.3250   -4.5625    0.0000 C   0  0  0  0  0  0  0  0  0  0  0  0
  3  2  1  0
  4  2  1  0
  5  4  1  0
  6  2  2  0
  7  6  1  0
  8  5  1  0
  9  3  1  0
 10  8  1  0
 11  3  2  0
 12  3  2  0
 13 10  2  0
 14 10  1  0
  7  5  2  0
M  CHG  2   1   1   9  -1
M  END
> <chembl_id>
CHEMBL1200814

> <chembl_pref_name>
ACETAZOLAMIDE SODIUM

$$$$

     RDKit          2D

 18 17  0  0  0  0  0  0  0  0999 V2000
    4.5292   -7.7417    0.0000 Cl  0  0  0  0  0  0  0  0  0  0  0  0
    1.8417   -6.4292    0.0000 C   0  0  0  0  0  0  0  0  0  0  0  0
    2.4542   -6.0750    0.0000 C   0  0  0  0  0  0  0  0  0  0  0  0
    3.0667   -6.4292    0.0000 C   0  0  0  0  0  0  0  0  0  0  0  0
    1.8417   -7.1417    0.0000 C   0  0  0  0  0  0  0  0  0  0  0  0
    4.9042   -6.0667    0.0000 N   0  0  0  0  0  0  0  0  0  0  0  0
    3.0667   -7.1417    0.0000 C   0  0  0  0  0  0  0  0  0  0  0  0
    5.5208   -6.4208    0.0000 C   0  0  0  0  0  0  0  0  0  0  0  0
    2.4542   -7.4958    0.0000 C   0  0  0  0  0  0  0  0  0  0  0  0
    4.2917   -6.4250    0.0000 C   0  0  0  0  0  0  0  0  0  0  0  0
    3.6792   -6.0708    0.0000 C   0  0  0  0  0  0  0  0  0  0  0  0
    1.2292   -7.4958    0.0000 O   0  0  0  0  0  0  0  0  0  0  0  0
    1.2292   -6.0750    0.0000 C   0  0  0  0  0  0  0  0  0  0  0  0
    3.6750   -5.3625    0.0000 O   0  0  0  0  0  0  0  0  0  0  0  0
    0.6167   -6.4292    0.0000 O   0  0  0  0  0  0  0  0  0  0  0  0
    5.8667   -7.0292    0.0000 C   0  0  0  0  0  0  0  0  0  0  0  0
    5.1625   -7.0292    0.0000 C   0  0  0  0  0  0  0  0  0  0  0  0
    6.1333   -6.0625    0.0000 C   0  0  0  0  0  0  0  0  0  0  0  0
  3  2  1  0
  4  3  2  0
  5  2  2  0
  6 10  1  0
  7  4  1  0
  8  6  1  0
  9  5  1  0
 10 11  1  0
 11  4  1  0
 12  5  1  0
 13  2  1  0
 11 14  1  1
 15 13  1  0
 16  8  1  0
 17  8  1  0
 18  8  1  0
  7  9  2  0
M  END
> <chembl_id>
CHEMBL1201061

> <chembl_pref_name>
LEVALBUTEROL HYDROCHLORIDE

$$$$

     RDKit          2D

 18 19  0  0  1  0  0  0  0  0999 V2000
    5.2667   -4.6167    0.0000 C   0  0  0  0  0  0  0  0  0  0  0  0
    4.6917   -5.0417    0.0000 N   0  0  0  0  0  0  0  0  0  0  0  0
    5.5875   -5.7042    0.0000 N   0  0  0  0  0  0  0  0  0  0  0  0
    5.2667   -3.9167    0.0000 C   0  0  0  0  0  0  0  0  0  0  0  0
    4.9000   -5.7042    0.0000 C   0  0  0  0  0  0  0  0  0  0  0  0
    4.0792   -4.6917    0.0000 C   0  0  0  0  0  0  0  0  0  0  0  0
    5.8375   -5.0417    0.0000 C   0  0  0  0  0  0  0  0  0  0  0  0
    4.6625   -3.5750    0.0000 O   0  0  0  0  0  0  0  0  0  0  0  0
    3.4625   -5.0500    0.0000 C   0  0  0  0  0  0  0  0  0  0  0  0
    5.8917   -3.5625    0.0000 O   0  0  0  0  0  0  0  0  0  0  0  0
    4.0792   -3.9917    0.0000 C   0  0  0  0  0  0  0  0  0  0  0  0
    2.8417   -4.6792    0.0000 C   0  0  0  0  0  0  0  0  0  0  0  0
    3.4625   -5.7750    0.0000 C   0  0  0  0  0  0  0  0  0  0  0  0
    6.5125   -3.9167    0.0000 C   0  0  0  0  0  0  0  0  0  0  0  0
    7.1167   -3.5542    0.0000 C   0  0  0  0  0  0  0  0  0  0  0  0
    2.8417   -6.1292    0.0000 C   0  0  0  0  0  0  0  0  0  0  0  0
    2.2292   -5.0500    0.0000 C   0  0  0  0  0  0  0  0  0  0  0  0
    2.2292   -5.7750    0.0000 C   0  0  0  0  0  0  0  0  0  0  0  0
  2  1  1  0
  3  7  1  0
  4  1  1  0
  5  2  1  0
  6  2  1  0
  7  1  2  0
  8  4  2  0
  9  6  1  0
 10  4  1  0
  6 11  1  1
 12  9  1  0
 13  9  2  0
 14 10  1  0
 15 14  1  0
 16 13  1  0
 17 12  2  0
 18 16  2  0
  3  5  2  0
 18 17  1  0
M  END
> <chembl_id>
CHEMBL681

> <chembl_pref_name>
ETOMIDATE

$$$$

     RDKit          2D

 17 18  0  0  0  0  0  0  0  0999 V2000
   -0.7708    0.0583    0.0000 C   0  0  0  0  0  0  0  0  0  0  0  0
    0.0167    1.4375    0.0000 C   0  0  0  0  0  0  0  0  0  0  0  0
    0.0292   -1.3042    0.0000 C   0  0  0  0  0  0  0  0  0  0  0  0
    1.5792    1.4375    0.0000 N   0  0  0  0  0  0  0  0  0  0  0  0
    1.5917   -1.3042    0.0000 N   0  0  0  0  0  0  0  0  0  0  0  0
    2.3792    0.0750    0.0000 C   0  0  0  0  0  0  0  0  0  0  0  0
   -2.0583   -0.8542    0.0000 C   0  0  0  0  0  0  0  0  0  0  0  0
   -0.7208   -2.6792    0.0000 O   0  0  0  0  0  0  0  0  0  0  0  0
   -0.7250    2.8083    0.0000 O   0  0  0  0  0  0  0  0  0  0  0  0
    3.9542    0.0833    0.0000 O   0  0  0  0  0  0  0  0  0  0  0  0
   -3.0083   -0.2292    0.0000 C   0  0  0  0  0  0  0  0  0  0  0  0
   -2.0458    1.3000    0.0000 C   0  0  0  0  0  0  0  0  0  0  0  0
   -2.1625   -2.0042    0.0000 C   0  0  0  0  0  0  0  0  0  0  0  0
   -4.0000   -0.6875    0.0000 C   0  0  0  0  0  0  0  0  0  0  0  0
   -3.5208    1.1583    0.0000 C   0  0  0  0  0  0  0  0  0  0  0  0
   -3.1833   -2.4667    0.0000 C   0  0  0  0  0  0  0  0  0  0  0  0
   -4.1083   -1.8125    0.0000 C   0  0  0  0  0  0  0  0  0  0  0  0
  2  1  1  0
  3  1  1  0
  4  2  1  0
  5  3  1  0
  6  5  1  0
  7  1  1  0
  8  3  2  0
  9  2  2  0
 10  6  2  0
 11  7  2  0
 12  1  1  0
 13  7  1  0
 14 11  1  0
 15 12  1  0
 16 13  1  0
 17 16  1  0
  4  6  1  0
 14 17  1  0
M  END
> <chembl_id>
CHEMBL268164

> <chembl_pref_name>
CYCLOBARBITAL

$$$$

     RDKit          2D

 12 12  0  0  0  0  0  0  0  0999 V2000
    4.7625   -6.2292    0.0000 C   0  0  0  0  0  0  0  0  0  0  0  0
    4.1625   -5.8667    0.0000 C   0  0  0  0  0  0  0  0  0  0  0  0
    4.7792   -4.8125    0.0000 N   0  0  0  0  0  0  0  0  0  0  0  0
    5.3792   -5.8792    0.0000 C   0  0  0  0  0  0  0  0  0  0  0  0
    4.1542   -5.1667    0.0000 C   0  0  0  0  0  0  0  0  0  0  0  0
    5.3875   -5.1667    0.0000 C   0  0  0  0  0  0  0  0  0  0  0  0
    3.5292   -6.2167    0.0000 O   0  0  0  0  0  0  0  0  0  0  0  0
    4.7542   -6.9292    0.0000 C   0  0  0  0  0  0  0  0  0  0  0  0
    5.9917   -6.2417    0.0000 C   0  0  0  0  0  0  0  0  0  0  0  0
    5.3667   -7.3000    0.0000 O   0  0  0  0  0  0  0  0  0  0  0  0
    6.6125   -5.9000    0.0000 O   0  0  0  0  0  0  0  0  0  0  0  0
    3.5417   -4.8042    0.0000 C   0  0  0  0  0  0  0  0  0  0  0  0
  2  1  2  0
  3  6  1  0
  4  1  1  0
  5  2  1  0
  6  4  2  0
  7  2  1  0
  8  1  1  0
  9  4  1  0
 10  8  1  0
 11  9  1  0
 12  5  1  0
  3  5  2  0
M  END
> <chembl_id>
CHEMBL1364

> <chembl_pref_name>
PYRIDOXINE

$$$$

     RDKit          2D

 15 15  0  0  0  0  0  0  0  0999 V2000
   -2.3333    0.1458    0.0000 N   0  0  0  0  0  0  0  0  0  0  0  0
   -1.3500   -0.3292    0.0000 C   0  0  0  0  0  0  0  0  0  0  0  0
   -3.2333   -0.4542    0.0000 C   0  0  0  0  0  0  0  0  0  0  0  0
   -1.2833   -1.4042    0.0000 N   0  0  0  0  0  0  0  0  0  0  0  0
   -4.2083    0.0083    0.0000 N   0  0  0  0  0  0  0  0  0  0  0  0
   -0.4500    0.2708    0.0000 N   0  0  0  0  0  0  0  0  0  0  0  0
   -3.1583   -1.5375    0.0000 N   0  0  0  0  0  0  0  0  0  0  0  0
    0.5125   -0.2000    0.0000 C   0  0  0  0  0  0  0  0  0  0  0  0
    2.3792   -0.0667    0.0000 C   0  0  0  0  0  0  0  0  0  0  0  0
    1.4125    0.3958    0.0000 C   0  0  0  0  0  0  0  0  0  0  0  0
    2.4542   -1.1500    0.0000 C   0  0  0  0  0  0  0  0  0  0  0  0
    3.2875    0.5208    0.0000 C   0  0  0  0  0  0  0  0  0  0  0  0
    4.2667    0.0458    0.0000 C   0  0  0  0  0  0  0  0  0  0  0  0
    3.4375   -1.6375    0.0000 C   0  0  0  0  0  0  0  0  0  0  0  0
    4.3417   -1.0167    0.0000 C   0  0  0  0  0  0  0  0  0  0  0  0
  2  1  1  0
  3  1  1  0
  4  2  2  0
  5  3  2  0
  6  2  1  0
  7  3  1  0
  8  6  1  0
  9 10  1  0
 10  8  1  0
 11  9  2  0
 12  9  1  0
 13 12  2  0
 14 11  1  0
 15 14  2  0
 13 15  1  0
M  END
> <chembl_id>
CHEMBL170988

> <chembl_pref_name>
PHENFORMIN

$$$$

     RDKit          2D

 15 15  0  0  1  0  0  0  0  0999 V2000
    6.1500   -5.0042    0.0000 C   0  0  0  0  0  0  0  0  0  0  0  0
    6.7667   -4.6625    0.0000 C   0  0  0  0  0  0  0  0  0  0  0  0
    4.3167   -6.0667    0.0000 C   0  0  0  0  0  0  0  0  0  0  0  0
    5.5500   -4.6500    0.0000 C   0  0  0  0  0  0  0  0  0  0  0  0
    3.7042   -5.7125    0.0000 C   0  0  0  0  0  0  0  0  0  0  0  0
    4.9292   -5.7125    0.0000 C   0  0  0  0  0  0  0  0  0  0  0  0
    4.9292   -5.0000    0.0000 C   0  0  0  0  0  0  0  0  0  0  0  0
    6.7875   -3.9542    0.0000 O   0  0  0  0  0  0  0  0  0  0  0  0
    3.7042   -5.0000    0.0000 C   0  0  0  0  0  0  0  0  0  0  0  0
    6.4917   -5.6292    0.0000 N   0  0  0  0  0  0  0  0  0  0  0  0
    7.3667   -5.0375    0.0000 O   0  0  0  0  0  0  0  0  0  0  0  0
    4.3167   -4.6500    0.0000 C   0  0  0  0  0  0  0  0  0  0  0  0
    4.3167   -6.7750    0.0000 O   0  0  0  0  0  0  0  0  0  0  0  0
    3.0917   -6.0667    0.0000 O   0  0  0  0  0  0  0  0  0  0  0  0
    5.7875   -5.6167    0.0000 C   0  0  0  0  0  0  0  0  0  0  0  0
  2  1  1  0
  3  6  1  0
  4  1  1  0
  5  9  1  0
  6  7  2  0
  7  4  1  0
  8  2  2  0
  9 12  2  0
  1 10  1  1
 11  2  1  0
 12  7  1  0
 13  3  1  0
 14  5  1  0
 15  1  1  0
  5  3  2  0
M  END
> <chembl_id>
CHEMBL459

> <chembl_pref_name>
METHYLDOPA

$$$$

     RDKit          2D

  3  1  0  0  0  0  0  0  0  0999 V2000
   -0.1083   -0.8125    0.0000 Na  0  0  0  0  0 15  0  0  0  0  0  0
   -1.2333   -0.8125    0.0000 O   0  0  0  0  0  0  0  0  0  0  0  0
   -1.9458   -0.8125    0.0000 Cl  0  0  0  0  0  0  0  0  0  0  0  0
  3  2  1  0
M  CHG  2   1   1   2  -1
M  END
> <chembl_id>
CHEMBL1334078

> <chembl_pref_name>
SODIUM HYPOCHLORITE

$$$$

     RDKit          2D

  8  8  0  0  0  0  0  0  0  0999 V2000
    6.3958   -1.4042    0.0000 N   0  0  0  0  0  0  0  0  0  0  0  0
    5.8208   -0.9875    0.0000 N   0  0  0  0  0  0  0  0  0  0  0  0
    6.1792   -2.0792    0.0000 C   0  0  0  0  0  0  0  0  0  0  0  0
    5.4667   -2.0792    0.0000 C   0  0  0  0  0  0  0  0  0  0  0  0
    5.2500   -1.4083    0.0000 C   0  0  0  0  0  0  0  0  0  0  0  0
    6.7958   -2.4333    0.0000 C   0  0  0  0  0  0  0  0  0  0  0  0
    8.0292   -2.4208    0.0000 N   0  0  0  0  0  0  0  0  0  0  0  0
    7.4083   -2.0708    0.0000 C   0  0  0  0  0  0  0  0  0  0  0  0
  2  1  1  0
  3  1  2  0
  4  3  1  0
  5  2  1  0
  6  3  1  0
  7  8  1  0
  8  6  1  0
  5  4  2  0
M  END
> <chembl_id>
CHEMBL1201323

> <chembl_pref_name>
BETAZOLE

$$$$

     RDKit          2D

 22 24  0  0  0  0  0  0  0  0999 V2000
    0.1667   -0.3917    0.0000 N   0  0  0  0  0  0  0  0  0  0  0  0
   -1.0833   -0.6792    0.0000 C   0  0  0  0  0  0  0  0  0  0  0  0
   -1.0958    2.2083    0.0000 N   0  0  0  0  0  0  0  0  0  0  0  0
   -2.0833    0.1000    0.0000 C   0  0  0  0  0  0  0  0  0  0  0  0
   -2.0833    1.3958    0.0000 C   0  0  0  0  0  0  0  0  0  0  0  0
    0.7042    0.7625    0.0000 C   0  0  0  0  0  0  0  0  0  0  0  0
    0.1542    1.8958    0.0000 C   0  0  0  0  0  0  0  0  0  0  0  0
    0.9875   -1.4042    0.0000 C   0  0  0  0  0  0  0  0  0  0  0  0
   -1.3708   -1.9292    0.0000 O   0  0  0  0  0  0  0  0  0  0  0  0
    2.2542   -1.1917    0.0000 C   0  0  0  0  0  0  0  0  0  0  0  0
   -1.4000    3.4625    0.0000 C   0  0  0  0  0  0  0  0  0  0  0  0
    3.0542   -2.2042    0.0000 N   0  0  0  0  0  0  0  0  0  0  0  0
   -3.2250   -0.5500    0.0000 C   0  0  0  0  0  0  0  0  0  0  0  0
   -3.2208    2.0583    0.0000 C   0  0  0  0  0  0  0  0  0  0  0  0
    2.0292    0.6583    0.0000 C   0  0  0  0  0  0  0  0  0  0  0  0
    0.8792    3.0083    0.0000 C   0  0  0  0  0  0  0  0  0  0  0  0
    4.3417   -2.0917    0.0000 C   0  0  0  0  0  0  0  0  0  0  0  0
    2.7417   -3.4542    0.0000 C   0  0  0  0  0  0  0  0  0  0  0  0
   -4.3458    0.1000    0.0000 C   0  0  0  0  0  0  0  0  0  0  0  0
    2.1917    2.9125    0.0000 C   0  0  0  0  0  0  0  0  0  0  0  0
   -4.3458    1.3958    0.0000 C   0  0  0  0  0  0  0  0  0  0  0  0
    2.7542    1.7375    0.0000 C   0  0  0  0  0  0  0  0  0  0  0  0
  2  1  1  0
  3  7  1  0
  4  2  1  0
  5  4  2  0
  6  1  1  0
  7  6  2  0
  8  1  1  0
  9  2  2  0
 10  8  1  0
 11  3  1  0
 12 10  1  0
 13  4  1  0
 14  5  1  0
 15  6  1  0
 16  7  1  0
 17 12  1  0
 18 12  1  0
 19 13  2  0
 20 22  1  0
 21 19  1  0
 22 15  2  0
  3  5  1  0
 16 20  2  0
 14 21  2  0
M  END
> <chembl_id>
CHEMBL1442422

> <chembl_pref_name>
DIBENZEPIN

$$$$

     RDKit          2D

 14 15  0  0  0  0  0  0  0  0999 V2000
    4.9542   -5.3625    0.0000 N   0  0  0  0  0  0  0  0  0  0  0  0
    4.9542   -4.6667    0.0000 C   0  0  0  0  0  0  0  0  0  0  0  0
    4.2917   -4.4417    0.0000 C   0  0  0  0  0  0  0  0  0  0  0  0
    5.5667   -4.3042    0.0000 N   0  0  0  0  0  0  0  0  0  0  0  0
    5.5667   -5.7125    0.0000 C   0  0  0  0  0  0  0  0  0  0  0  0
    6.1750   -4.6667    0.0000 N   0  0  0  0  0  0  0  0  0  0  0  0
    6.1750   -5.3625    0.0000 N   0  0  0  0  0  0  0  0  0  0  0  0
    3.8792   -5.0167    0.0000 N   0  0  0  0  0  0  0  0  0  0  0  0
    4.3000   -5.5792    0.0000 C   0  0  0  0  0  0  0  0  0  0  0  0
    3.9167   -3.8250    0.0000 C   0  0  0  0  0  0  0  0  0  0  0  0
    5.5625   -6.4292    0.0000 O   0  0  0  0  0  0  0  0  0  0  0  0
    4.2792   -3.1917    0.0000 O   0  0  0  0  0  0  0  0  0  0  0  0
    3.1917   -3.8250    0.0000 N   0  0  0  0  0  0  0  0  0  0  0  0
    6.8000   -5.7250    0.0000 C   0  0  0  0  0  0  0  0  0  0  0  0
  2  1  1  0
  3  2  2  0
  4  2  1  0
  5  1  1  0
  6  7  1  0
  7  5  1  0
  8  9  2  0
  9  1  1  0
 10  3  1  0
 11  5  2  0
 12 10  2  0
 13 10  1  0
 14  7  1  0
  8  3  1  0
  6  4  2  0
M  END
> <chembl_id>
CHEMBL810

> <chembl_pref_name>
TEMOZOLOMIDE

$$$$

     RDKit          2D

 19 20  0  0  0  0  0  0  0  0999 V2000
    0.4167    1.1000    0.0000 C   0  0  0  0  0  0  0  0  0  0  0  0
    0.4167   -0.9000    0.0000 C   0  0  0  0  0  0  0  0  0  0  0  0
   -0.4583    0.6083    0.0000 C   0  0  0  0  0  0  0  0  0  0  0  0
   -0.4583   -0.4042    0.0000 C   0  0  0  0  0  0  0  0  0  0  0  0
    1.2917    0.6083    0.0000 C   0  0  0  0  0  0  0  0  0  0  0  0
    1.2917   -0.4042    0.0000 C   0  0  0  0  0  0  0  0  0  0  0  0
    0.4167    2.1000    0.0000 O   0  0  0  0  0  0  0  0  0  0  0  0
    0.4167   -1.9000    0.0000 O   0  0  0  0  0  0  0  0  0  0  0  0
   -0.4583    2.6083    0.0000 C   0  0  0  0  0  0  0  0  0  0  0  0
   -0.4583   -2.4042    0.0000 C   0  0  0  0  0  0  0  0  0  0  0  0
   -0.4583   -3.4042    0.0000 O   0  0  0  0  0  0  0  0  0  0  0  0
   -1.3250    2.1000    0.0000 O   0  0  0  0  0  0  0  0  0  0  0  0
   -1.3208    1.1000    0.0000 C   0  0  0  0  0  0  0  0  0  0  0  0
    2.1792    1.1000    0.0000 C   0  0  0  0  0  0  0  0  0  0  0  0
   -1.3208   -0.9000    0.0000 C   0  0  0  0  0  0  0  0  0  0  0  0
   -0.4458    3.5958    0.0000 C   0  0  0  0  0  0  0  0  0  0  0  0
   -1.3208   -1.9000    0.0000 C   0  0  0  0  0  0  0  0  0  0  0  0
   -2.1833    0.6083    0.0000 C   0  0  0  0  0  0  0  0  0  0  0  0
   -2.1833   -0.4042    0.0000 C   0  0  0  0  0  0  0  0  0  0  0  0
  2  6  2  0
  3  1  1  0
  4  3  2  0
  5  1  2  0
  6  5  1  0
  7  1  1  0
  8  2  1  0
  9  7  1  0
 10  8  1  0
 11 10  2  0
 12  9  2  0
 13  3  1  0
 14  5  1  0
 15  4  1  0
 16  9  1  0
 17 10  1  0
 18 13  2  0
 19 18  1  0
  4  2  1  0
 15 19  2  0
M  END
> <chembl_id>
CHEMBL1479848

> <chembl_pref_name>
ACETOMENAPHTHONE

$$$$

     RDKit          2D

 16 17  0  0  0  0  0  0  0  0999 V2000
   -0.2333   -3.7042    0.0000 C   0  0  0  0  0  0  0  0  0  0  0  0
   -0.8500   -3.3417    0.0000 N   0  0  0  0  0  0  0  0  0  0  0  0
    3.3292   -3.6000    0.0000 C   0  0  0  0  0  0  0  0  0  0  0  0
    2.7500   -3.1917    0.0000 N   0  0  0  0  0  0  0  0  0  0  0  0
    0.3292   -3.2667    0.0000 O   0  0  0  0  0  0  0  0  0  0  0  0
    2.1500   -3.5792    0.0000 N   0  0  0  0  0  0  0  0  0  0  0  0
    0.0167   -4.3667    0.0000 C   0  0  0  0  0  0  0  0  0  0  0  0
    0.9292   -3.6542    0.0000 C   0  0  0  0  0  0  0  0  0  0  0  0
    1.5042   -3.2667    0.0000 C   0  0  0  0  0  0  0  0  0  0  0  0
    0.7375   -4.3375    0.0000 C   0  0  0  0  0  0  0  0  0  0  0  0
   -0.8458   -2.6292    0.0000 O   0  0  0  0  0  0  0  0  0  0  0  0
    3.9042   -3.1917    0.0000 O   0  0  0  0  0  0  0  0  0  0  0  0
   -1.4708   -3.6792    0.0000 O   0  0  0  0  0  0  0  0  0  0  0  0
    3.3292   -4.3167    0.0000 O   0  0  0  0  0  0  0  0  0  0  0  0
    2.9750   -2.5042    0.0000 C   0  0  0  0  0  0  0  0  0  0  0  0
    3.6875   -2.5125    0.0000 C   0  0  0  0  0  0  0  0  0  0  0  0
  2  1  1  0
  3  4  1  0
  4  6  1  0
  5  1  1  0
  6  9  2  0
  7  1  2  0
  8  5  1  0
  9  8  1  0
 10  7  1  0
 11  2  1  0
 12  3  1  0
 13  2  2  0
 14  3  2  0
 15  4  1  0
 16 15  1  0
 10  8  2  0
 16 12  1  0
M  CHG  2   2   1  11  -1
M  END
> <chembl_id>
CHEMBL1103

> <chembl_pref_name>
FURAZOLIDONE

$$$$

     RDKit          2D

  9  9  0  0  0  0  0  0  0  0999 V2000
    0.0375    1.6708    0.0000 C   0  0  0  0  0  0  0  0  0  0  0  0
    1.2917    2.4125    0.0000 O   0  0  0  0  0  0  0  0  0  0  0  0
    0.0375    0.2208    0.0000 C   0  0  0  0  0  0  0  0  0  0  0  0
   -1.1833    2.4125    0.0000 O   0  0  0  0  0  0  0  0  0  0  0  0
   -1.1833   -0.4417    0.0000 C   0  0  0  0  0  0  0  0  0  0  0  0
    1.2542   -0.4417    0.0000 C   0  0  0  0  0  0  0  0  0  0  0  0
    1.2542   -1.9042    0.0000 C   0  0  0  0  0  0  0  0  0  0  0  0
   -1.2000   -1.8875    0.0000 C   0  0  0  0  0  0  0  0  0  0  0  0
    0.0167   -2.6292    0.0000 C   0  0  0  0  0  0  0  0  0  0  0  0
  2  1  2  0
  3  1  1  0
  4  1  1  0
  5  3  2  0
  6  3  1  0
  7  6  2  0
  8  5  1  0
  9  7  1  0
  8  9  2  0
M  END
> <chembl_id>
CHEMBL541

> <chembl_pref_name>
BENZOIC ACID

$$$$

     RDKit          2D

 18 19  0  0  0  0  0  0  0  0999 V2000
    1.3875    0.0500    0.0000 C   0  0  0  0  0  0  0  0  0  0  0  0
    0.5042   -0.6250    0.0000 S   0  0  0  0  0  0  0  0  0  0  0  0
   -0.4125    0.0333    0.0000 C   0  0  0  0  0  0  0  0  0  0  0  0
    2.3792   -0.5042    0.0000 C   0  0  0  0  0  0  0  0  0  0  0  0
   -1.4125   -0.5000    0.0000 C   0  0  0  0  0  0  0  0  0  0  0  0
    1.0417    1.1208    0.0000 C   0  0  0  0  0  0  0  0  0  0  0  0
   -0.0708    1.1208    0.0000 C   0  0  0  0  0  0  0  0  0  0  0  0
    3.3417    0.0833    0.0000 C   0  0  0  0  0  0  0  0  0  0  0  0
   -1.4625   -1.6542    0.0000 O   0  0  0  0  0  0  0  0  0  0  0  0
    3.3542    1.2500    0.0000 O   0  0  0  0  0  0  0  0  0  0  0  0
   -2.3583    0.1000    0.0000 C   0  0  0  0  0  0  0  0  0  0  0  0
    4.2542   -0.5375    0.0000 O   0  0  0  0  0  0  0  0  0  0  0  0
    2.3792   -1.6167    0.0000 C   0  0  0  0  0  0  0  0  0  0  0  0
   -2.3208    1.2458    0.0000 C   0  0  0  0  0  0  0  0  0  0  0  0
   -3.3583   -0.4375    0.0000 C   0  0  0  0  0  0  0  0  0  0  0  0
   -3.2833    1.8708    0.0000 C   0  0  0  0  0  0  0  0  0  0  0  0
   -4.3458    0.1750    0.0000 C   0  0  0  0  0  0  0  0  0  0  0  0
   -4.3208    1.3333    0.0000 C   0  0  0  0  0  0  0  0  0  0  0  0
  2  1  1  0
  3  2  1  0
  4  1  1  0
  5  3  1  0
  6  1  2  0
  7  6  1  0
  8  4  1  0
  9  5  2  0
 10  8  2  0
 11  5  1  0
 12  8  1  0
 13  4  1  0
 14 11  2  0
 15 11  1  0
 16 14  1  0
 17 15  2  0
 18 17  1  0
  3  7  2  0
 16 18  2  0
M  END
> <chembl_id>
CHEMBL365795

> <chembl_pref_name>
TIAPROFENIC ACID

$$$$

     RDKit          2D

 16 18  0  0  0  0  0  0  0  0999 V2000
    4.8375   -4.1167    0.0000 C   0  0  0  0  0  0  0  0  0  0  0  0
    5.5375   -3.9000    0.0000 N   0  0  0  0  0  0  0  0  0  0  0  0
    4.8375   -4.8292    0.0000 N   0  0  0  0  0  0  0  0  0  0  0  0
    3.6125   -4.8292    0.0000 C   0  0  0  0  0  0  0  0  0  0  0  0
    4.2250   -3.7542    0.0000 N   0  0  0  0  0  0  0  0  0  0  0  0
    3.6125   -4.1167    0.0000 C   0  0  0  0  0  0  0  0  0  0  0  0
    4.2250   -5.1875    0.0000 C   0  0  0  0  0  0  0  0  0  0  0  0
    5.9250   -4.4750    0.0000 C   0  0  0  0  0  0  0  0  0  0  0  0
    2.9917   -5.1875    0.0000 C   0  0  0  0  0  0  0  0  0  0  0  0
    5.5375   -5.0417    0.0000 C   0  0  0  0  0  0  0  0  0  0  0  0
    2.3792   -4.8292    0.0000 C   0  0  0  0  0  0  0  0  0  0  0  0
    2.9917   -3.7542    0.0000 C   0  0  0  0  0  0  0  0  0  0  0  0
    6.6292   -4.4750    0.0000 O   0  0  0  0  0  0  0  0  0  0  0  0
    2.3792   -4.1167    0.0000 C   0  0  0  0  0  0  0  0  0  0  0  0
    2.9917   -5.8917    0.0000 Cl  0  0  0  0  0  0  0  0  0  0  0  0
    1.7625   -5.1875    0.0000 Cl  0  0  0  0  0  0  0  0  0  0  0  0
  2  1  1  0
  3  1  1  0
  4  6  2  0
  5  1  2  0
  6  5  1  0
  7  3  1  0
  8  2  1  0
  9  4  1  0
 10  3  1  0
 11 14  1  0
 12  6  1  0
 13  8  2  0
 14 12  2  0
 15  9  1  0
 16 11  1  0
  8 10  1  0
  4  7  1  0
  9 11  2  0
M  END
> <chembl_id>
CHEMBL760

> <chembl_pref_name>
ANAGRELIDE

$$$$

     RDKit          2D

 10 10  0  0  0  0  0  0  0  0999 V2000
    5.0679  -73.0714    0.0000 C   0  0  0  0  0  0  0  0  0  0  0  0
    4.3534  -73.4839    0.0000 C   0  0  0  0  0  0  0  0  0  0  0  0
    4.3534  -74.3089    0.0000 C   0  0  0  0  0  0  0  0  0  0  0  0
    5.0679  -74.7214    0.0000 C   0  0  0  0  0  0  0  0  0  0  0  0
    5.7824  -74.3089    0.0000 C   0  0  0  0  0  0  0  0  0  0  0  0
    5.7824  -73.4839    0.0000 C   0  0  0  0  0  0  0  0  0  0  0  0
    6.4968  -73.0714    0.0000 O   0  0  0  0  0  0  0  0  0  0  0  0
    7.2113  -73.4839    0.0000 C   0  0  0  0  0  0  0  0  0  0  0  0
    7.9258  -73.0714    0.0000 C   0  0  0  0  0  0  0  0  0  0  0  0
    8.6402  -73.4839    0.0000 O   0  0  0  0  0  0  0  0  0  0  0  0
  1  2  1  0
  1  6  2  0
  2  3  2  0
  3  4  1  0
  4  5  2  0
  5  6  1  0
  6  7  1  0
  7  8  1  0
  8  9  1  0
  9 10  1  0
M  END
> <chembl_id>
CHEMBL1229846

> <chembl_pref_name>
PHENOXYETHANOL

$$$$

     RDKit          2D

 21 23  0  0  0  0  0  0  0  0999 V2000
    5.6542   -5.9250    0.0000 N   0  0  0  0  0  0  0  0  0  0  0  0
    6.3000   -5.6167    0.0000 C   0  0  0  0  0  0  0  0  0  0  0  0
    5.0167   -5.6042    0.0000 C   0  0  0  0  0  0  0  0  0  0  0  0
    6.4667   -4.9292    0.0000 C   0  0  0  0  0  0  0  0  0  0  0  0
    4.8750   -4.9042    0.0000 C   0  0  0  0  0  0  0  0  0  0  0  0
    6.0417   -4.3792    0.0000 C   0  0  0  0  0  0  0  0  0  0  0  0
    5.3292   -4.3625    0.0000 C   0  0  0  0  0  0  0  0  0  0  0  0
    5.6500   -6.6167    0.0000 C   0  0  0  0  0  0  0  0  0  0  0  0
    5.0250   -6.9667    0.0000 C   0  0  0  0  0  0  0  0  0  0  0  0
    4.3875   -8.0250    0.0000 N   0  0  0  0  0  0  0  0  0  0  0  0
    4.5042   -6.0750    0.0000 C   0  0  0  0  0  0  0  0  0  0  0  0
    6.8167   -6.1125    0.0000 C   0  0  0  0  0  0  0  0  0  0  0  0
    5.0042   -7.6792    0.0000 C   0  0  0  0  0  0  0  0  0  0  0  0
    4.2000   -4.6917    0.0000 C   0  0  0  0  0  0  0  0  0  0  0  0
    7.1542   -4.7292    0.0000 C   0  0  0  0  0  0  0  0  0  0  0  0
    4.3792   -8.7375    0.0000 C   0  0  0  0  0  0  0  0  0  0  0  0
    3.7792   -7.6625    0.0000 C   0  0  0  0  0  0  0  0  0  0  0  0
    3.8250   -5.8542    0.0000 C   0  0  0  0  0  0  0  0  0  0  0  0
    7.4917   -5.9167    0.0000 C   0  0  0  0  0  0  0  0  0  0  0  0
    7.6667   -5.2292    0.0000 C   0  0  0  0  0  0  0  0  0  0  0  0
    3.6750   -5.1542    0.0000 C   0  0  0  0  0  0  0  0  0  0  0  0
  2  1  1  0
  3  1  1  0
  4  2  2  0
  5  3  1  0
  6  4  1  0
  7  5  1  0
  8  1  1  0
  9  8  1  0
 10 13  1  0
 11  3  2  0
 12  2  1  0
 13  9  1  0
 14  5  2  0
 15  4  1  0
 16 10  1  0
 17 10  1  0
 18 11  1  0
 19 12  2  0
 20 19  1  0
 21 18  2  0
  7  6  1  0
 21 14  1  0
 20 15  2  0
M  END
> <chembl_id>
CHEMBL11

> <chembl_pref_name>
IMIPRAMINE

$$$$

     RDKit          2D

 20 20  0  0  0  0  0  0  0  0999 V2000
   -0.4000   -0.2167    0.0000 C   0  0  0  0  0  0  0  0  0  0  0  0
   -2.2958   -0.2417    0.0000 C   0  0  0  0  0  0  0  0  0  0  0  0
   -1.3458    0.3083    0.0000 C   0  0  0  0  0  0  0  0  0  0  0  0
   -0.4000   -1.3167    0.0000 C   0  0  0  0  0  0  0  0  0  0  0  0
   -2.2833   -1.3292    0.0000 C   0  0  0  0  0  0  0  0  0  0  0  0
   -1.3458   -1.8542    0.0000 C   0  0  0  0  0  0  0  0  0  0  0  0
   -3.2458    0.3083    0.0000 O   0  0  0  0  0  0  0  0  0  0  0  0
   -3.2583    1.4125    0.0000 C   0  0  0  0  0  0  0  0  0  0  0  0
   -4.2083    1.9458    0.0000 O   0  0  0  0  0  0  0  0  0  0  0  0
    0.5292    0.3208    0.0000 C   0  0  0  0  0  0  0  0  0  0  0  0
    0.5792   -1.8667    0.0000 O   0  0  0  0  0  0  0  0  0  0  0  0
    3.4042   -1.3042    0.0000 N   0  0  0  0  0  0  0  0  0  0  0  0
    1.5167   -1.3167    0.0000 C   0  0  0  0  0  0  0  0  0  0  0  0
   -3.2208   -1.8750    0.0000 C   0  0  0  0  0  0  0  0  0  0  0  0
   -2.3208    1.9583    0.0000 C   0  0  0  0  0  0  0  0  0  0  0  0
    2.4542   -1.8542    0.0000 C   0  0  0  0  0  0  0  0  0  0  0  0
    3.3917   -0.2292    0.0000 C   0  0  0  0  0  0  0  0  0  0  0  0
    4.3417   -1.8417    0.0000 C   0  0  0  0  0  0  0  0  0  0  0  0
    0.5250    1.3958    0.0000 C   0  0  0  0  0  0  0  0  0  0  0  0
    1.4625   -0.2125    0.0000 C   0  0  0  0  0  0  0  0  0  0  0  0
  2  3  1  0
  3  1  2  0
  4  1  1  0
  5  6  1  0
  6  4  2  0
  7  2  1  0
  8  7  1  0
  9  8  2  0
 10  1  1  0
 11  4  1  0
 12 16  1  0
 13 11  1  0
 14  5  1  0
 15  8  1  0
 16 13  1  0
 17 12  1  0
 18 12  1  0
 19 10  1  0
 20 10  1  0
  2  5  2  0
M  END
> <chembl_id>
CHEMBL159226

> <chembl_pref_name>
MOXISYLYTE

$$$$

     RDKit          2D

 13 13  0  0  0  0  0  0  0  0999 V2000
    0.9343   -0.2856    0.0000 Br  0  0  0  0  0  0  0  0  0  0  0  0
    0.2198    0.9519    0.0000 N   0  0  0  0  0  0  0  0  0  0  0  0
   -0.4946   -0.2856    0.0000 C   0  0  0  0  0  0  0  0  0  0  0  0
   -0.4946    0.5394    0.0000 C   0  0  0  0  0  0  0  0  0  0  0  0
    0.2198   -0.6981    0.0000 C   0  0  0  0  0  0  0  0  0  0  0  0
   -1.2091   -0.6981    0.0000 C   0  0  0  0  0  0  0  0  0  0  0  0
    0.2198   -1.5231    0.0000 C   0  0  0  0  0  0  0  0  0  0  0  0
    0.9343    1.3644    0.0000 C   0  0  0  0  0  0  0  0  0  0  0  0
   -1.2091   -1.5231    0.0000 C   0  0  0  0  0  0  0  0  0  0  0  0
   -0.4946   -1.9356    0.0000 C   0  0  0  0  0  0  0  0  0  0  0  0
    0.6323    0.2375    0.0000 C   0  0  0  0  0  0  0  0  0  0  0  0
   -0.1927    1.6664    0.0000 C   0  0  0  0  0  0  0  0  0  0  0  0
    0.9343    2.1894    0.0000 C   0  0  0  0  0  0  0  0  0  0  0  0
  1  5  1  0
  2  4  1  0
  2  8  1  0
  2 11  1  0
  2 12  1  0
  3  4  1  0
  3  5  2  0
  3  6  1  0
  5  7  1  0
  6  9  2  0
  7 10  2  0
  8 13  1  0
  9 10  1  0
M  CHG  1   2   1
M  END
> <chembl_id>
CHEMBL1199080

> <chembl_pref_name>
BRETYLIUM

$$$$

     RDKit          2D

 18 18  0  0  0  0  0  0  0  0999 V2000
    3.0803    2.5322    0.0000 Na  0  0  0  0  0 15  0  0  0  0  0  0
    4.8864    4.1293    0.0000 N   0  0  0  0  0  0  0  0  0  0  0  0
    5.5705    4.5343    0.0000 C   0  0  0  0  0  0  0  0  0  0  0  0
    4.8452    5.7598    0.0000 C   0  0  0  0  0  0  0  0  0  0  0  0
    5.5814    5.3581    0.0000 C   0  0  0  0  0  0  0  0  0  0  0  0
    4.1611    5.3548    0.0000 N   0  0  0  0  0  0  0  0  0  0  0  0
    4.1639    4.5192    0.0000 C   0  0  0  0  0  0  0  0  0  0  0  0
    6.3037    4.1375    0.0000 O   0  0  0  0  0  0  0  0  0  0  0  0
    4.8560    6.5836    0.0000 O   0  0  0  0  0  0  0  0  0  0  0  0
    3.4503    4.0967    0.0000 O   0  0  0  0  0  0  0  0  0  0  0  0
    6.3965    5.3620    0.0000 C   0  0  0  0  0  0  0  0  0  0  0  0
    5.9740    6.0757    0.0000 C   0  0  0  0  0  0  0  0  0  0  0  0
    6.8019    6.0805    0.0000 C   0  0  0  0  0  0  0  0  0  0  0  0
    6.8072    4.6681    0.0000 C   0  0  0  0  0  0  0  0  0  0  0  0
    5.5488    6.7942    0.0000 C   0  0  0  0  0  0  0  0  0  0  0  0
    7.6466    6.1019    0.0000 C   0  0  0  0  0  0  0  0  0  0  0  0
    7.6379    4.6680    0.0000 C   0  0  0  0  0  0  0  0  0  0  0  0
    8.0573    5.4080    0.0000 C   0  0  0  0  0  0  0  0  0  0  0  0
  3  2  1  0
  4  6  1  0
  5  3  1  0
  6  7  2  0
  7  2  1  0
  8  3  2  0
  9  4  2  0
 10  7  1  0
 11  5  1  0
 12  5  1  0
 13 11  2  0
 14 11  1  0
 15 12  1  0
 16 13  1  0
 17 14  2  0
 18 16  2  0
  4  5  1  0
 17 18  1  0
M  CHG  2   1   1  10  -1
M  END
> <chembl_id>
CHEMBL149972

> <chembl_pref_name>
PHENOBARBITAL SODIUM

$$$$

     RDKit          2D

 17 17  0  0  0  0  0  0  0  0999 V2000
    4.1958   -4.4333    0.0000 C   0  0  0  0  0  0  0  0  0  0  0  0
    4.8083   -4.0750    0.0000 C   0  0  0  0  0  0  0  0  0  0  0  0
    1.7458   -4.4375    0.0000 C   0  0  0  0  0  0  0  0  0  0  0  0
    3.5833   -4.0792    0.0000 C   0  0  0  0  0  0  0  0  0  0  0  0
    1.7458   -5.1500    0.0000 C   0  0  0  0  0  0  0  0  0  0  0  0
    2.3583   -4.0833    0.0000 C   0  0  0  0  0  0  0  0  0  0  0  0
    2.9708   -4.4375    0.0000 C   0  0  0  0  0  0  0  0  0  0  0  0
    4.8083   -3.3667    0.0000 O   0  0  0  0  0  0  0  0  0  0  0  0
    2.3583   -5.5042    0.0000 C   0  0  0  0  0  0  0  0  0  0  0  0
    4.5417   -5.0417    0.0000 N   0  0  0  0  0  0  0  0  0  0  0  0
    2.9708   -5.1500    0.0000 C   0  0  0  0  0  0  0  0  0  0  0  0
    5.4250   -4.4292    0.0000 O   0  0  0  0  0  0  0  0  0  0  0  0
    1.1333   -4.0833    0.0000 O   0  0  0  0  0  0  0  0  0  0  0  0
    1.1333   -5.5042    0.0000 O   0  0  0  0  0  0  0  0  0  0  0  0
    3.8375   -5.0417    0.0000 C   0  0  0  0  0  0  0  0  0  0  0  0
    6.0375   -4.0708    0.0000 C   0  0  0  0  0  0  0  0  0  0  0  0
    6.6500   -4.4250    0.0000 C   0  0  0  0  0  0  0  0  0  0  0  0
  2  1  1  0
  3  6  1  0
  4  1  1  0
  5  3  2  0
  6  7  2  0
  7  4  1  0
  8  2  2  0
  9 11  2  0
  1 10  1  1
 11  7  1  0
 12  2  1  0
 13  3  1  0
 14  5  1  0
 15  1  1  0
 16 12  1  0
 17 16  1  0
  9  5  1  0
M  END
> <chembl_id>
CHEMBL1201233

> <chembl_pref_name>
METHYLDOPATE

$$$$

     RDKit          2D

 18 18  0  0  0  0  0  0  0  0999 V2000
   -1.0585   -2.8698    0.0000 C   0  0  0  0  0  0  0  0  0  0  0  0
   -1.0585   -3.7001    0.0000 C   0  0  0  0  0  0  0  0  0  0  0  0
   -0.3156   -2.4619    0.0000 C   0  0  0  0  0  0  0  0  0  0  0  0
   -1.7626   -2.4619    0.0000 C   0  0  0  0  0  0  0  0  0  0  0  0
   -1.7626   -4.1129    0.0000 C   0  0  0  0  0  0  0  0  0  0  0  0
    2.5493   -2.4813    0.0000 N   0  0  0  0  0  0  0  0  0  0  0  0
   -0.3156   -1.6364    0.0000 O   0  0  0  0  0  0  0  0  0  0  0  0
   -2.4764   -3.6904    0.0000 C   0  0  0  0  0  0  0  0  0  0  0  0
   -0.3447   -4.1129    0.0000 Cl  0  0  0  0  0  0  0  0  0  0  0  0
    0.3836   -2.8698    0.0000 O   0  0  0  0  0  0  0  0  0  0  0  0
   -2.4764   -2.8698    0.0000 C   0  0  0  0  0  0  0  0  0  0  0  0
   -3.2145   -4.1129    0.0000 N   0  0  0  0  0  0  0  0  0  0  0  0
    1.8258   -2.8892    0.0000 C   0  0  0  0  0  0  0  0  0  0  0  0
    1.1120   -2.4619    0.0000 C   0  0  0  0  0  0  0  0  0  0  0  0
    2.5493   -1.6607    0.0000 C   0  0  0  0  0  0  0  0  0  0  0  0
    3.2534   -2.8892    0.0000 C   0  0  0  0  0  0  0  0  0  0  0  0
    1.8355   -1.2431    0.0000 C   0  0  0  0  0  0  0  0  0  0  0  0
    3.9672   -2.4813    0.0000 C   0  0  0  0  0  0  0  0  0  0  0  0
  2  1  1  0
  3  1  1  0
  4  1  2  0
  5  2  2  0
  6 13  1  0
  7  3  2  0
  8 11  2  0
  9  2  1  0
 10  3  1  0
 11  4  1  0
 12  8  1  0
 13 14  1  0
 14 10  1  0
 15  6  1  0
 16  6  1  0
 17 15  1  0
 18 16  1  0
  5  8  1  0
M  END
> <chembl_id>
CHEMBL1179047

> <chembl_pref_name>
CHLOROPROCAINE

$$$$

     RDKit          2D

 12 11  0  0  0  0  0  0  0  0999 V2000
    6.4542   -6.1875    0.0000 Br  0  0  0  0  0  0  0  0  0  0  0  0
    4.1250   -5.5250    0.0000 C   0  0  0  0  0  0  0  0  0  0  0  0
    2.8917   -6.2417    0.0000 C   0  0  0  0  0  0  0  0  0  0  0  0
    4.7417   -5.1750    0.0000 C   0  0  0  0  0  0  0  0  0  0  0  0
    5.3542   -6.2292    0.0000 N   0  0  0  0  0  0  0  0  0  0  0  0
    3.5042   -5.1792    0.0000 C   0  0  0  0  0  0  0  0  0  0  0  0
    4.1292   -6.2417    0.0000 C   0  0  0  0  0  0  0  0  0  0  0  0
    3.5042   -6.6000    0.0000 C   0  0  0  0  0  0  0  0  0  0  0  0
    2.8917   -5.5292    0.0000 C   0  0  0  0  0  0  0  0  0  0  0  0
    2.2750   -6.6000    0.0000 O   0  0  0  0  0  0  0  0  0  0  0  0
    5.3542   -5.5250    0.0000 C   0  0  0  0  0  0  0  0  0  0  0  0
    5.9667   -5.1667    0.0000 C   0  0  0  0  0  0  0  0  0  0  0  0
  3  9  2  0
  4  2  1  0
  5 11  1  0
  6  2  2  0
  7  2  1  0
  8  7  2  0
  9  6  1  0
 10  3  1  0
 11  4  1  0
 12 11  1  0
  3  8  1  0
M  END
> <chembl_id>
CHEMBL1200705

> <chembl_pref_name>
HYDROXYAMPHETAMINE HYDROBROMIDE

$$$$

     RDKit          2D

 18 18  0  0  0  0  0  0  0  0999 V2000
    5.9917   -5.1542    0.0000 S   0  0  0  0  0  0  0  0  0  0  0  0
    5.3792   -4.8042    0.0000 N   0  0  0  0  0  0  0  0  0  0  0  0
    4.7667   -5.1542    0.0000 C   0  0  0  0  0  0  0  0  0  0  0  0
    6.6042   -4.8042    0.0000 C   0  0  0  0  0  0  0  0  0  0  0  0
    6.3417   -5.7667    0.0000 O   0  0  0  0  0  0  0  0  0  0  0  0
    5.6375   -5.7667    0.0000 O   0  0  0  0  0  0  0  0  0  0  0  0
    4.7667   -5.8667    0.0000 O   0  0  0  0  0  0  0  0  0  0  0  0
    4.1542   -4.8042    0.0000 N   0  0  0  0  0  0  0  0  0  0  0  0
    7.2167   -5.1542    0.0000 C   0  0  0  0  0  0  0  0  0  0  0  0
    6.6042   -4.0917    0.0000 C   0  0  0  0  0  0  0  0  0  0  0  0
    7.2167   -3.7375    0.0000 C   0  0  0  0  0  0  0  0  0  0  0  0
    7.8292   -4.8042    0.0000 C   0  0  0  0  0  0  0  0  0  0  0  0
    7.8292   -4.0917    0.0000 C   0  0  0  0  0  0  0  0  0  0  0  0
    3.5417   -5.1542    0.0000 C   0  0  0  0  0  0  0  0  0  0  0  0
    8.4417   -3.7292    0.0000 C   0  0  0  0  0  0  0  0  0  0  0  0
    2.9292   -4.8042    0.0000 C   0  0  0  0  0  0  0  0  0  0  0  0
    2.3125   -5.1542    0.0000 C   0  0  0  0  0  0  0  0  0  0  0  0
    1.7000   -4.8000    0.0000 C   0  0  0  0  0  0  0  0  0  0  0  0
  2  1  1  0
  3  2  1  0
  4  1  1  0
  5  1  2  0
  6  1  2  0
  7  3  2  0
  8  3  1  0
  9  4  1  0
 10  4  2  0
 11 10  1  0
 12  9  2  0
 13 11  2  0
 14  8  1  0
 15 13  1  0
 16 14  1  0
 17 16  1  0
 18 17  1  0
 12 13  1  0
M  END
> <chembl_id>
CHEMBL782

> <chembl_pref_name>
TOLBUTAMIDE

$$$$

  SciTegic12091219252D

  7  6  0  0  0  0            999 V2000
    4.6250   -6.5542    0.0000 C   0  0
    5.2417   -6.9167    0.0000 O   0  0
    4.6250   -5.8625    0.0000 O   0  0
    2.1625   -6.5667    0.0000 O   0  0
    4.0042   -6.9167    0.0000 C   0  0
    2.7792   -6.9167    0.0000 C   0  0
    3.4000   -6.5542    0.0000 C   0  0
  2  1  1  0
  3  1  2  0
  4  6  1  0
  5  1  1  0
  6  7  1  0
  7  5  1  0
M  END
> <chembl_id>
CHEMBL1342

> <chembl_pref_name>
OXYBATE

$$$$

     RDKit          2D

 16 17  0  0  0  0  0  0  0  0999 V2000
    1.8167   -0.2167    0.0000 C   0  0  0  0  0  0  0  0  0  0  0  0
    0.6250    0.4625    0.0000 C   0  0  0  0  0  0  0  0  0  0  0  0
   -0.5833   -0.2375    0.0000 C   0  0  0  0  0  0  0  0  0  0  0  0
    1.8292   -1.6042    0.0000 C   0  0  0  0  0  0  0  0  0  0  0  0
    0.6292   -2.3042    0.0000 N   0  0  0  0  0  0  0  0  0  0  0  0
   -0.5875   -1.6167    0.0000 C   0  0  0  0  0  0  0  0  0  0  0  0
    3.0417    0.4708    0.0000 C   0  0  0  0  0  0  0  0  0  0  0  0
    4.2550    1.1518    0.0000 N   0  0  0  0  0  0  0  0  0  0  0  0
    3.0167   -2.2792    0.0000 O   0  0  0  0  0  0  0  0  0  0  0  0
   -1.7833    0.4708    0.0000 C   0  0  0  0  0  0  0  0  0  0  0  0
   -4.1708    1.8708    0.0000 N   0  0  0  0  0  0  0  0  0  0  0  0
   -1.8125   -2.3042    0.0000 C   0  0  0  0  0  0  0  0  0  0  0  0
   -4.1625    0.4833    0.0000 C   0  0  0  0  0  0  0  0  0  0  0  0
   -2.9708    2.5708    0.0000 C   0  0  0  0  0  0  0  0  0  0  0  0
   -1.7583    1.8708    0.0000 C   0  0  0  0  0  0  0  0  0  0  0  0
   -2.9708   -0.2000    0.0000 C   0  0  0  0  0  0  0  0  0  0  0  0
  2  1  2  0
  3  2  1  0
  4  1  1  0
  5  4  1  0
  6  5  1  0
  7  1  1  0
  8  7  3  0
  9  4  2  0
 10  3  1  0
 11 13  1  0
 12  6  1  0
 13 16  2  0
 14 15  1  0
 15 10  2  0
 16 10  1  0
  3  6  2  0
 14 11  2  0
M  END
> <chembl_id>
CHEMBL189

> <chembl_pref_name>
MILRINONE

$$$$

     RDKit          2D

 13 13  0  0  0  0  0  0  0  0999 V2000
    5.3042   -4.8917    0.0000 C   0  0  0  0  0  0  0  0  0  0  0  0
    4.6792   -4.5167    0.0000 C   0  0  0  0  0  0  0  0  0  0  0  0
    5.3042   -5.6167    0.0000 C   0  0  0  0  0  0  0  0  0  0  0  0
    4.6667   -5.9792    0.0000 N   0  0  0  0  0  0  0  0  0  0  0  0
    4.0375   -4.8792    0.0000 C   0  0  0  0  0  0  0  0  0  0  0  0
    4.0375   -5.6042    0.0000 C   0  0  0  0  0  0  0  0  0  0  0  0
    4.6667   -3.7917    0.0000 O   0  0  0  0  0  0  0  0  0  0  0  0
    5.9375   -5.9917    0.0000 O   0  0  0  0  0  0  0  0  0  0  0  0
    5.3167   -4.1292    0.0000 C   0  0  0  0  0  0  0  0  0  0  0  0
    5.8917   -4.5917    0.0000 C   0  0  0  0  0  0  0  0  0  0  0  0
    3.4292   -4.5250    0.0000 C   0  0  0  0  0  0  0  0  0  0  0  0
    5.8125   -3.7042    0.0000 C   0  0  0  0  0  0  0  0  0  0  0  0
    6.4625   -4.8667    0.0000 C   0  0  0  0  0  0  0  0  0  0  0  0
  2  1  1  0
  3  1  1  0
  4  3  1  0
  5  2  1  0
  6  4  1  0
  7  2  2  0
  8  3  2  0
  9  1  1  0
 10  1  1  0
 11  5  1  0
 12  9  1  0
 13 10  1  0
  6  5  1  0
M  END
> <chembl_id>
CHEMBL1200790

> <chembl_pref_name>
METHYPRYLON

$$$$

     RDKit          2D

 18 19  0  0  0  0  0  0  0  0999 V2000
  -14.2607    7.9897    0.0000 C   0  0  0  0  0  0  0  0  0  0  0  0
  -14.6732    7.2752    0.0000 C   0  0  0  0  0  0  0  0  0  0  0  0
  -13.8482    7.2752    0.0000 C   0  0  0  0  0  0  0  0  0  0  0  0
  -15.3877    7.6877    0.0000 C   0  0  0  0  0  0  0  0  0  0  0  0
  -13.8482    6.4502    0.0000 C   0  0  0  0  0  0  0  0  0  0  0  0
  -13.1338    7.6877    0.0000 C   0  0  0  0  0  0  0  0  0  0  0  0
  -12.4193    7.2752    0.0000 N   0  0  0  0  0  0  0  0  0  0  0  0
  -13.1338    8.5127    0.0000 O   0  0  0  0  0  0  0  0  0  0  0  0
  -11.7048    7.6877    0.0000 C   0  0  0  0  0  0  0  0  0  0  0  0
  -12.4193    6.4502    0.0000 C   0  0  0  0  0  0  0  0  0  0  0  0
  -11.7048    6.0377    0.0000 C   0  0  0  0  0  0  0  0  0  0  0  0
  -10.9904    7.2752    0.0000 C   0  0  0  0  0  0  0  0  0  0  0  0
  -16.1021    7.2752    0.0000 N   0  0  0  0  0  0  0  0  0  0  0  0
  -14.5627    6.0377    0.0000 C   0  0  0  0  0  0  0  0  0  0  0  0
  -14.5627    5.2127    0.0000 C   0  0  0  0  0  0  0  0  0  0  0  0
  -13.8482    4.8002    0.0000 C   0  0  0  0  0  0  0  0  0  0  0  0
  -13.1337    5.2127    0.0000 C   0  0  0  0  0  0  0  0  0  0  0  0
  -13.1337    6.0377    0.0000 C   0  0  0  0  0  0  0  0  0  0  0  0
  1  2  1  0
  2  3  1  0
  3  1  1  0
  2  4  1  6
  3  5  1  1
  3  6  1  0
  6  7  1  0
  6  8  2  0
  7  9  1  0
  7 10  1  0
 10 11  1  0
  9 12  1  0
  4 13  1  0
  5 14  1  0
  5 18  2  0
 14 15  2  0
 15 16  1  0
 16 17  2  0
 17 18  1  0
M  END
> <chembl_id>
CHEMBL99946

> <chembl_pref_name>
LEVOMILNACIPRAN

$$$$

     RDKit          2D

 18 18  0  0  0  0  0  0  0  0999 V2000
   -0.3000    0.6208    0.0000 C   0  0  0  0  0  0  0  0  0  0  0  0
    0.4292   -0.6292    0.0000 C   0  0  0  0  0  0  0  0  0  0  0  0
    0.9250    1.3583    0.0000 C   0  0  0  0  0  0  0  0  0  0  0  0
    2.1750    2.0958    0.0000 N   0  0  0  0  0  0  0  0  0  0  0  0
    1.8667   -0.6125    0.0000 C   0  0  0  0  0  0  0  0  0  0  0  0
   -1.5583   -0.1167    0.0000 C   0  0  0  0  0  0  0  0  0  0  0  0
    2.5667   -1.8417    0.0000 N   0  0  0  0  0  0  0  0  0  0  0  0
   -1.0458    1.8458    0.0000 C   0  0  0  0  0  0  0  0  0  0  0  0
    4.0042   -1.8417    0.0000 C   0  0  0  0  0  0  0  0  0  0  0  0
    1.8667   -3.0750    0.0000 C   0  0  0  0  0  0  0  0  0  0  0  0
    2.5667    0.6208    0.0000 C   0  0  0  0  0  0  0  0  0  0  0  0
   -1.5583   -1.5542    0.0000 C   0  0  0  0  0  0  0  0  0  0  0  0
   -2.7833    0.5833    0.0000 C   0  0  0  0  0  0  0  0  0  0  0  0
   -2.5000    1.8250    0.0000 C   0  0  0  0  0  0  0  0  0  0  0  0
   -0.3458    3.0833    0.0000 C   0  0  0  0  0  0  0  0  0  0  0  0
   -2.7833   -2.2792    0.0000 C   0  0  0  0  0  0  0  0  0  0  0  0
   -4.0208   -0.1167    0.0000 C   0  0  0  0  0  0  0  0  0  0  0  0
   -4.0208   -1.5542    0.0000 C   0  0  0  0  0  0  0  0  0  0  0  0
  2  1  1  0
  3  1  1  0
  4  3  3  0
  5  2  1  0
  6  1  1  0
  7  5  1  0
  8  1  1  0
  9  7  1  0
 10  7  1  0
 11  5  1  0
 12  6  1  0
 13  6  2  0
 14  8  1  0
 15  8  1  0
 16 12  2  0
 17 13  1  0
 18 17  2  0
 16 18  1  0
M  END
> <chembl_id>
CHEMBL2105002

> <chembl_pref_name>
ISOAMINILE

$$$$

     RDKit          2D

 15 16  0  0  1  0  0  0  0  0999 V2000
    0.3625    0.0583    0.0000 C   0  0  0  0  0  0  0  0  0  0  0  0
   -2.0708    0.0625    0.0000 C   0  0  0  0  0  0  0  0  0  0  0  0
   -3.4458    0.5458    0.0000 N   0  0  0  0  0  0  0  0  0  0  0  0
    1.7292    0.6333    0.0000 C   0  0  0  0  0  0  0  0  0  0  0  0
   -0.8583    0.8583    0.0000 C   0  0  0  0  0  0  0  0  0  0  0  0
   -3.4083   -1.9292    0.0000 N   0  0  0  0  0  0  0  0  0  0  0  0
   -4.3458   -0.6792    0.0000 C   0  0  0  0  0  0  0  0  0  0  0  0
   -1.9958   -1.4250    0.0000 C   0  0  0  0  0  0  0  0  0  0  0  0
    2.9417   -0.2792    0.0000 C   0  0  0  0  0  0  0  0  0  0  0  0
    0.1667   -1.4667    0.0000 C   0  0  0  0  0  0  0  0  0  0  0  0
    1.9167    2.1458    0.0000 C   0  0  0  0  0  0  0  0  0  0  0  0
   -0.8583    2.3833    0.0000 C   0  0  0  0  0  0  0  0  0  0  0  0
    1.3542   -2.3750    0.0000 C   0  0  0  0  0  0  0  0  0  0  0  0
    2.7500   -1.7917    0.0000 C   0  0  0  0  0  0  0  0  0  0  0  0
    4.3375    0.3083    0.0000 C   0  0  0  0  0  0  0  0  0  0  0  0
  2  5  1  0
  3  2  1  0
  4  1  1  0
  5  1  1  0
  6  8  1  0
  7  3  2  0
  8  2  2  0
  9  4  2  0
 10  1  2  0
 11  4  1  0
  5 12  1  1
 13 10  1  0
 14 13  2  0
 15  9  1  0
  9 14  1  0
  6  7  1  0
M  END
> <chembl_id>
CHEMBL778

> <chembl_pref_name>
DEXMEDETOMIDINE

$$$$

     RDKit          2D

 15 15  0  0  0  0  0  0  0  0999 V2000
    1.3375    0.6375    0.0000 N   0  0  0  0  0  0  0  0  0  0  0  0
    0.6292   -0.5792    0.0000 C   0  0  0  0  0  0  0  0  0  0  0  0
    2.7917    0.6458    0.0000 C   0  0  0  0  0  0  0  0  0  0  0  0
   -0.7625   -0.6042    0.0000 C   0  0  0  0  0  0  0  0  0  0  0  0
    1.3625   -1.8500    0.0000 O   0  0  0  0  0  0  0  0  0  0  0  0
    3.5042   -0.6167    0.0000 O   0  0  0  0  0  0  0  0  0  0  0  0
   -1.5083    0.6458    0.0000 C   0  0  0  0  0  0  0  0  0  0  0  0
    3.4917    1.8625    0.0000 N   0  0  0  0  0  0  0  0  0  0  0  0
   -1.4750   -1.8542    0.0000 C   0  0  0  0  0  0  0  0  0  0  0  0
   -0.8000    1.8625    0.0000 C   0  0  0  0  0  0  0  0  0  0  0  0
   -2.9208    0.6458    0.0000 C   0  0  0  0  0  0  0  0  0  0  0  0
   -0.7708   -3.1042    0.0000 C   0  0  0  0  0  0  0  0  0  0  0  0
   -3.6625    1.8750    0.0000 C   0  0  0  0  0  0  0  0  0  0  0  0
   -1.5083    3.1083    0.0000 C   0  0  0  0  0  0  0  0  0  0  0  0
   -2.9625    3.1083    0.0000 C   0  0  0  0  0  0  0  0  0  0  0  0
  2  1  1  0
  3  1  1  0
  4  2  1  0
  5  2  2  0
  6  3  2  0
  7  4  1  0
  8  3  1  0
  9  4  1  0
 10  7  2  0
 11  7  1  0
 12  9  1  0
 13 11  2  0
 14 10  1  0
 15 13  1  0
 14 15  2  0
M  END
> <chembl_id>
CHEMBL2107062

> <chembl_pref_name>
PHENETURIDE

$$$$

     RDKit          2D

 15 14  0  0  0  0  0  0  0  0999 V2000
    0.6542   -3.1167    0.0000 P   0  0  0  0  0  0  0  0  0  0  0  0
    1.0042   -2.5000    0.0000 O   0  0  0  0  0  0  0  0  0  0  0  0
    3.1125   -3.1167    0.0000 N   0  0  0  0  0  0  0  0  0  0  0  0
    1.2750   -3.4667    0.0000 S   0  0  0  0  0  0  0  0  0  0  0  0
    1.8875   -3.1167    0.0000 C   0  0  0  0  0  0  0  0  0  0  0  0
    0.3000   -2.5000    0.0000 O   0  0  0  0  0  0  0  0  0  0  0  0
    0.0417   -3.4667    0.0000 O   0  0  0  0  0  0  0  0  0  0  0  0
    2.5000   -3.4667    0.0000 C   0  0  0  0  0  0  0  0  0  0  0  0
    2.7542   -2.4917    0.0000 C   0  0  0  0  0  0  0  0  0  0  0  0
    3.7250   -3.4667    0.0000 C   0  0  0  0  0  0  0  0  0  0  0  0
    3.4625   -2.4917    0.0000 C   0  0  0  0  0  0  0  0  0  0  0  0
   -0.4083   -2.5042    0.0000 C   0  0  0  0  0  0  0  0  0  0  0  0
   -0.5708   -3.1167    0.0000 C   0  0  0  0  0  0  0  0  0  0  0  0
   -0.7708   -1.8917    0.0000 C   0  0  0  0  0  0  0  0  0  0  0  0
   -1.1833   -3.4667    0.0000 C   0  0  0  0  0  0  0  0  0  0  0  0
  2  1  2  0
  3  8  1  0
  4  1  1  0
  5  4  1  0
  6  1  1  0
  7  1  1  0
  8  5  1  0
  9  3  1  0
 10  3  1  0
 11  3  1  0
 12  6  1  0
 13  7  1  0
 14 12  1  0
 15 13  1  0
M  CHG  1   3   1
M  END
> <chembl_id>
CHEMBL1201341

> <chembl_pref_name>
ECHOTHIOPHATE

$$$$

     RDKit          2D

 10  9  0  0  0  0  0  0  0  0999 V2000
    2.4042   -1.8667    0.0000 P   0  0  0  0  0  0  0  0  0  0  0  0
    0.5542   -2.2167    0.0000 C   0  0  0  0  0  0  0  0  0  0  0  0
    1.1750   -1.8667    0.0000 C   0  0  0  0  0  0  0  0  0  0  0  0
    1.7875   -2.2167    0.0000 O   0  0  0  0  0  0  0  0  0  0  0  0
    3.0167   -2.2167    0.0000 O   0  0  0  0  0  0  0  0  0  0  0  0
    2.7542   -1.2417    0.0000 O   0  0  0  0  0  0  0  0  0  0  0  0
    2.0417   -1.2417    0.0000 O   0  0  0  0  0  0  0  0  0  0  0  0
    0.9042   -2.8375    0.0000 Cl  0  0  0  0  0  0  0  0  0  0  0  0
    0.2000   -2.8375    0.0000 Cl  0  0  0  0  0  0  0  0  0  0  0  0
   -0.0583   -1.8667    0.0000 Cl  0  0  0  0  0  0  0  0  0  0  0  0
  2  3  1  0
  3  4  1  0
  4  1  1  0
  5  1  1  0
  6  1  2  0
  7  1  1  0
  8  2  1  0
  9  2  1  0
 10  2  1  0
M  END
> <chembl_id>
CHEMBL1201317

> <chembl_pref_name>
TRICLOFOS

$$$$

     RDKit          2D

 17 18  0  0  0  0  0  0  0  0999 V2000
    6.6542   -6.0917    0.0000 N   0  0  0  0  0  0  0  0  0  0  0  0
    6.0500   -5.7417    0.0000 C   0  0  0  0  0  0  0  0  0  0  0  0
    5.4292   -6.0917    0.0000 C   0  0  0  0  0  0  0  0  0  0  0  0
    6.6542   -6.8042    0.0000 C   0  0  0  0  0  0  0  0  0  0  0  0
    5.4292   -6.8042    0.0000 C   0  0  0  0  0  0  0  0  0  0  0  0
    6.0500   -7.1625    0.0000 N   0  0  0  0  0  0  0  0  0  0  0  0
    4.8250   -5.7417    0.0000 C   0  0  0  0  0  0  0  0  0  0  0  0
    6.0500   -5.0375    0.0000 N   0  0  0  0  0  0  0  0  0  0  0  0
    7.2750   -7.1625    0.0000 N   0  0  0  0  0  0  0  0  0  0  0  0
    4.2042   -6.0917    0.0000 C   0  0  0  0  0  0  0  0  0  0  0  0
    4.8250   -5.0250    0.0000 C   0  0  0  0  0  0  0  0  0  0  0  0
    3.5875   -5.0250    0.0000 C   0  0  0  0  0  0  0  0  0  0  0  0
    3.5875   -5.7417    0.0000 C   0  0  0  0  0  0  0  0  0  0  0  0
    4.2042   -4.6667    0.0000 C   0  0  0  0  0  0  0  0  0  0  0  0
    2.9792   -4.6792    0.0000 Cl  0  0  0  0  0  0  0  0  0  0  0  0
    4.8250   -7.1625    0.0000 C   0  0  0  0  0  0  0  0  0  0  0  0
    4.2125   -6.8167    0.0000 C   0  0  0  0  0  0  0  0  0  0  0  0
  2  1  1  0
  3  2  2  0
  4  1  2  0
  5  6  2  0
  6  4  1  0
  7  3  1  0
  8  2  1  0
  9  4  1  0
 10  7  1  0
 11  7  2  0
 12 14  2  0
 13 10  2  0
 14 11  1  0
 15 12  1  0
 16  5  1  0
 17 16  1  0
  5  3  1  0
 12 13  1  0
M  END
> <chembl_id>
CHEMBL36

> <chembl_pref_name>
PYRIMETHAMINE

$$$$

     RDKit          2D

 13 12  0  0  0  0  0  0  0  0999 V2000
    7.2417   -5.5292    0.0000 Na  0  0  0  0  0 15  0  0  0  0  0  0
    5.9542   -5.7667    0.0000 C   0  0  0  0  0  0  0  0  0  0  0  0
    6.5292   -5.3917    0.0000 O   0  0  0  0  0  0  0  0  0  0  0  0
    5.9542   -6.4917    0.0000 O   0  0  0  0  0  0  0  0  0  0  0  0
    3.4917   -5.7792    0.0000 C   0  0  0  0  0  0  0  0  0  0  0  0
    5.3417   -5.4167    0.0000 C   0  0  0  0  0  0  0  0  0  0  0  0
    4.7292   -5.7792    0.0000 C   0  0  0  0  0  0  0  0  0  0  0  0
    4.1125   -5.4292    0.0000 C   0  0  0  0  0  0  0  0  0  0  0  0
    3.4917   -6.4917    0.0000 C   0  0  0  0  0  0  0  0  0  0  0  0
    2.8792   -5.4292    0.0000 C   0  0  0  0  0  0  0  0  0  0  0  0
    2.2667   -5.7792    0.0000 C   0  0  0  0  0  0  0  0  0  0  0  0
    2.8792   -6.8500    0.0000 C   0  0  0  0  0  0  0  0  0  0  0  0
    2.2667   -6.4917    0.0000 C   0  0  0  0  0  0  0  0  0  0  0  0
  3  2  1  0
  4  2  2  0
  5  8  1  0
  6  2  1  0
  7  6  1  0
  8  7  1  0
  9  5  2  0
 10  5  1  0
 11 10  2  0
 12  9  1  0
 13 12  2  0
 13 11  1  0
M  CHG  2   1   1   3  -1
M  END
> <chembl_id>
CHEMBL1746

> <chembl_pref_name>
SODIUM PHENYLBUTYRATE

$$$$

     RDKit          2D

 11 10  0  0  0  0  0  0  0  0999 V2000
    1.8458   -6.8000    0.0000 C   0  0  0  0  0  0  0  0  0  0  0  0
    2.4625   -7.1542    0.0000 C   0  0  0  0  0  0  0  0  0  0  0  0
    1.2333   -7.1542    0.0000 C   0  0  0  0  0  0  0  0  0  0  0  0
    2.1917   -6.1792    0.0000 F   0  0  0  0  0  0  0  0  0  0  0  0
    1.4875   -6.1792    0.0000 F   0  0  0  0  0  0  0  0  0  0  0  0
    1.5792   -7.7667    0.0000 F   0  0  0  0  0  0  0  0  0  0  0  0
    0.8750   -7.7667    0.0000 F   0  0  0  0  0  0  0  0  0  0  0  0
    2.1042   -7.7667    0.0000 F   0  0  0  0  0  0  0  0  0  0  0  0
    2.8125   -7.7667    0.0000 F   0  0  0  0  0  0  0  0  0  0  0  0
    3.0750   -6.8000    0.0000 F   0  0  0  0  0  0  0  0  0  0  0  0
    0.6208   -6.8000    0.0000 F   0  0  0  0  0  0  0  0  0  0  0  0
  2  1  1  0
  3  1  1  0
  4  1  1  0
  5  1  1  0
  6  3  1  0
  7  3  1  0
  8  2  1  0
  9  2  1  0
 10  2  1  0
 11  3  1  0
M  END
> <chembl_id>
CHEMBL1663

> <chembl_pref_name>
PERFLUTREN

$$$$

     RDKit          2D

 17 17  0  0  0  0  0  0  0  0999 V2000
    3.7417   -2.0333    0.0000 Na  0  0  0  0  0 15  0  0  0  0  0  0
    3.3625   -3.9042    0.0000 C   0  0  0  0  0  0  0  0  0  0  0  0
    3.3625   -3.1833    0.0000 C   0  0  0  0  0  0  0  0  0  0  0  0
    2.7333   -4.2583    0.0000 N   0  0  0  0  0  0  0  0  0  0  0  0
    2.1125   -3.1833    0.0000 N   0  0  0  0  0  0  0  0  0  0  0  0
    2.7333   -2.8292    0.0000 C   0  0  0  0  0  0  0  0  0  0  0  0
    4.0375   -4.1208    0.0000 N   0  0  0  0  0  0  0  0  0  0  0  0
    4.0375   -2.9583    0.0000 N   0  0  0  0  0  0  0  0  0  0  0  0
    2.1125   -3.9042    0.0000 C   0  0  0  0  0  0  0  0  0  0  0  0
    4.4583   -3.5417    0.0000 C   0  0  0  0  0  0  0  0  0  0  0  0
    2.7333   -2.1083    0.0000 O   0  0  0  0  0  0  0  0  0  0  0  0
    4.0333   -4.8167    0.0000 C   0  0  0  0  0  0  0  0  0  0  0  0
    1.5000   -4.2583    0.0000 N   0  0  0  0  0  0  0  0  0  0  0  0
    4.6250   -5.1667    0.0000 O   0  0  0  0  0  0  0  0  0  0  0  0
    6.4375   -4.8292    0.0000 O   0  0  0  0  0  0  0  0  0  0  0  0
    5.8375   -5.1708    0.0000 C   0  0  0  0  0  0  0  0  0  0  0  0
    5.2375   -4.8208    0.0000 C   0  0  0  0  0  0  0  0  0  0  0  0
  3  2  2  0
  4  2  1  0
  5  9  1  0
  6  3  1  0
  7  2  1  0
  8  3  1  0
  9  4  2  0
 10  7  1  0
 11  6  1  0
 12  7  1  0
 13  9  1  0
 14 12  1  0
 15 16  1  0
 16 17  1  0
 17 14  1  0
 10  8  2  0
  5  6  2  0
M  CHG  2   1   1  11  -1
M  END
> <chembl_id>
CHEMBL1200380

> <chembl_pref_name>
ACYCLOVIR SODIUM

$$$$

     RDKit          2D

 17 16  0  0  0  0  0  0  0  0999 V2000
    5.2917   -3.7792    0.0000 Cl  0  0  0  0  0  0  0  0  0  0  0  0
   -0.5500   -2.3167    0.0000 C   0  0  0  0  0  0  0  0  0  0  0  0
    0.0542   -2.6625    0.0000 C   0  0  0  0  0  0  0  0  0  0  0  0
    0.6792   -2.3042    0.0000 C   0  0  0  0  0  0  0  0  0  0  0  0
    1.2875   -2.6667    0.0000 C   0  0  0  0  0  0  0  0  0  0  0  0
   -1.1583   -2.6667    0.0000 F   0  0  0  0  0  0  0  0  0  0  0  0
   -0.5500   -1.6292    0.0000 F   0  0  0  0  0  0  0  0  0  0  0  0
   -1.1833   -1.9542    0.0000 F   0  0  0  0  0  0  0  0  0  0  0  0
    1.9000   -2.3125    0.0000 C   0  0  0  0  0  0  0  0  0  0  0  0
    3.1500   -2.3125    0.0000 N   0  0  0  0  0  0  0  0  0  0  0  0
    0.0542   -3.3917    0.0000 C   0  0  0  0  0  0  0  0  0  0  0  0
    2.5250   -2.6667    0.0000 C   0  0  0  0  0  0  0  0  0  0  0  0
    0.6875   -3.7417    0.0000 C   0  0  0  0  0  0  0  0  0  0  0  0
    1.2917   -3.3875    0.0000 C   0  0  0  0  0  0  0  0  0  0  0  0
    3.7667   -2.6667    0.0000 C   0  0  0  0  0  0  0  0  0  0  0  0
    2.5250   -3.3167    0.0000 C   0  0  0  0  0  0  0  0  0  0  0  0
    4.3917   -2.3000    0.0000 C   0  0  0  0  0  0  0  0  0  0  0  0
  3  2  1  0
  4  3  1  0
  5  4  2  0
  6  2  1  0
  7  2  1  0
  8  2  1  0
  9  5  1  0
 10 12  1  0
 11  3  2  0
 12  9  1  0
 13 11  1  0
 14 13  2  0
 15 10  1  0
 12 16  1  1
 17 15  1  0
 14  5  1  0
M  END
> <chembl_id>
CHEMBL1887891

> <chembl_pref_name>
DEXFENFLURAMINE HYDROCHLORIDE

$$$$

     RDKit          2D

 14 15  0  0  0  0  0  0  0  0999 V2000
    5.0542   -4.8417    0.0000 Cl  0  0  0  0  0  0  0  0  0  0  0  0
    3.2000   -4.6625    0.0000 C   0  0  0  0  0  0  0  0  0  0  0  0
    3.8167   -5.6417    0.0000 C   0  0  0  0  0  0  0  0  0  0  0  0
    2.5833   -5.6583    0.0000 C   0  0  0  0  0  0  0  0  0  0  0  0
    2.9250   -6.1542    0.0000 C   0  0  0  0  0  0  0  0  0  0  0  0
    2.5833   -4.9458    0.0000 C   0  0  0  0  0  0  0  0  0  0  0  0
    3.8125   -4.9458    0.0000 C   0  0  0  0  0  0  0  0  0  0  0  0
    3.1958   -5.9292    0.0000 C   0  0  0  0  0  0  0  0  0  0  0  0
    2.9250   -5.1458    0.0000 C   0  0  0  0  0  0  0  0  0  0  0  0
    3.6083   -6.3125    0.0000 C   0  0  0  0  0  0  0  0  0  0  0  0
    2.0875   -6.4042    0.0000 C   0  0  0  0  0  0  0  0  0  0  0  0
    3.2000   -4.0875    0.0000 N   0  0  0  0  0  0  0  0  0  0  0  0
    4.3292   -5.8792    0.0000 C   0  0  0  0  0  0  0  0  0  0  0  0
    1.9875   -5.9292    0.0000 C   0  0  0  0  0  0  0  0  0  0  0  0
  3  7  1  0
  4  6  1  0
  5  9  1  0
  6  2  1  0
  7  2  1  0
  8  3  1  0
  9  2  1  0
 10  3  1  0
 11  5  1  0
 12  2  1  0
 13  3  1  0
 14  4  1  0
 10  5  1  0
  8  4  1  0
 11  4  1  0
M  END
> <chembl_id>
CHEMBL1699

> <chembl_pref_name>
MEMANTINE HYDROCHLORIDE

$$$$

     RDKit          2D

 10 10  0  0  0  0  0  0  0  0999 V2000
    4.9417   -5.7042    0.0000 N   0  0  0  0  0  0  0  0  0  0  0  0
    5.5167   -5.2792    0.0000 C   0  0  0  0  0  0  0  0  0  0  0  0
    4.3667   -5.2875    0.0000 C   0  0  0  0  0  0  0  0  0  0  0  0
    5.2917   -4.6125    0.0000 C   0  0  0  0  0  0  0  0  0  0  0  0
    4.5917   -4.6042    0.0000 C   0  0  0  0  0  0  0  0  0  0  0  0
    6.2250   -5.4875    0.0000 O   0  0  0  0  0  0  0  0  0  0  0  0
    3.6750   -5.5000    0.0000 O   0  0  0  0  0  0  0  0  0  0  0  0
    5.7667   -4.0792    0.0000 C   0  0  0  0  0  0  0  0  0  0  0  0
    5.2917   -3.9500    0.0000 C   0  0  0  0  0  0  0  0  0  0  0  0
    6.4667   -4.2250    0.0000 C   0  0  0  0  0  0  0  0  0  0  0  0
  2  1  1  0
  3  1  1  0
  4  2  1  0
  5  3  1  0
  6  2  2  0
  7  3  2  0
  8  4  1  0
  9  4  1  0
 10  8  1  0
  5  4  1  0
M  END
> <chembl_id>
CHEMBL696

> <chembl_pref_name>
ETHOSUXIMIDE

$$$$

     RDKit          2D

 19 20  0  0  1  0  0  0  0  0999 V2000
   -1.4500    0.4833    0.0000 C   0  0  0  0  0  0  0  0  0  0  0  0
   -0.4833   -0.0750    0.0000 C   0  0  0  0  0  0  0  0  0  0  0  0
    3.3667   -0.0292    0.0000 C   0  0  0  0  0  0  0  0  0  0  0  0
    1.4542   -0.0750    0.0000 C   0  0  0  0  0  0  0  0  0  0  0  0
    0.4792    0.4833    0.0000 C   0  0  0  0  0  0  0  0  0  0  0  0
    2.4167    0.4833    0.0000 C   0  0  0  0  0  0  0  0  0  0  0  0
   -1.4500    1.5958    0.0000 O   0  0  0  0  0  0  0  0  0  0  0  0
    3.4042   -1.1167    0.0000 O   0  0  0  0  0  0  0  0  0  0  0  0
   -2.4125   -0.0750    0.0000 C   0  0  0  0  0  0  0  0  0  0  0  0
    4.2625    0.5375    0.0000 O   0  0  0  0  0  0  0  0  0  0  0  0
   -0.4833   -1.1750    0.0000 C   0  0  0  0  0  0  0  0  0  0  0  0
    1.4542   -1.1750    0.0000 C   0  0  0  0  0  0  0  0  0  0  0  0
    0.4792   -1.7167    0.0000 C   0  0  0  0  0  0  0  0  0  0  0  0
    2.4167    1.5583    0.0000 C   0  0  0  0  0  0  0  0  0  0  0  0
   -2.4125   -1.1750    0.0000 C   0  0  0  0  0  0  0  0  0  0  0  0
   -3.3833    0.4833    0.0000 C   0  0  0  0  0  0  0  0  0  0  0  0
   -3.3833   -1.7167    0.0000 C   0  0  0  0  0  0  0  0  0  0  0  0
   -4.3458   -0.0750    0.0000 C   0  0  0  0  0  0  0  0  0  0  0  0
   -4.3458   -1.1750    0.0000 C   0  0  0  0  0  0  0  0  0  0  0  0
  2  1  1  0
  3  6  1  0
  4  5  1  0
  5  2  2  0
  6  4  1  0
  7  1  2  0
  8  3  2  0
  9  1  1  0
 10  3  1  0
 11  2  1  0
 12 13  1  0
 13 11  2  0
  6 14  1  6
 15  9  2  0
 16  9  1  0
 17 15  1  0
 18 16  2  0
 19 18  1  0
 17 19  2  0
  4 12  2  0
M  END
> <chembl_id>
CHEMBL75435

> <chembl_pref_name>
DEXKETOPROFEN

$$$$

     RDKit          2D

  7  6  0  0  0  0  0  0  0  0999 V2000
    6.4625   -4.7250    0.0000 S   0  0  0  0  0  0  0  0  0  0  0  0
    6.0500   -5.4375    0.0000 C   0  0  0  0  0  0  0  0  0  0  0  0
    7.1750   -5.1375    0.0000 O   0  0  0  0  0  0  0  0  0  0  0  0
    6.8750   -4.0125    0.0000 O   0  0  0  0  0  0  0  0  0  0  0  0
    5.7458   -4.3125    0.0000 O   0  0  0  0  0  0  0  0  0  0  0  0
    4.8125   -6.1542    0.0000 S   0  0  0  0  0  0  0  0  0  0  0  0
    5.2250   -5.4375    0.0000 C   0  0  0  0  0  0  0  0  0  0  0  0
  2  1  1  0
  3  1  2  0
  4  1  2  0
  5  1  1  0
  6  7  1  0
  7  2  1  0
M  END
> <chembl_id>
CHEMBL1098319

> <chembl_pref_name>
MESNA

$$$$

     RDKit          2D

 19 21  0  0  0  0  0  0  0  0999 V2000
    0.3833    0.3958    0.0000 N   0  0  0  0  0  0  0  0  0  0  0  0
    0.6292   -0.3917    0.0000 C   0  0  0  0  0  0  0  0  0  0  0  0
    0.9875    0.9583    0.0000 C   0  0  0  0  0  0  0  0  0  0  0  0
    0.1625   -1.0750    0.0000 C   0  0  0  0  0  0  0  0  0  0  0  0
   -0.3833    0.7000    0.0000 C   0  0  0  0  0  0  0  0  0  0  0  0
   -0.6583   -1.1333    0.0000 C   0  0  0  0  0  0  0  0  0  0  0  0
   -1.1000    0.2875    0.0000 C   0  0  0  0  0  0  0  0  0  0  0  0
   -1.2208   -0.5292    0.0000 C   0  0  0  0  0  0  0  0  0  0  0  0
    0.8042    1.7625    0.0000 O   0  0  0  0  0  0  0  0  0  0  0  0
    1.7792    0.7167    0.0000 N   0  0  0  0  0  0  0  0  0  0  0  0
   -1.2417   -1.7167    0.0000 O   0  0  0  0  0  0  0  0  0  0  0  0
    1.4500   -0.4542    0.0000 C   0  0  0  0  0  0  0  0  0  0  0  0
    0.5208   -1.8167    0.0000 C   0  0  0  0  0  0  0  0  0  0  0  0
   -0.3833    1.5250    0.0000 C   0  0  0  0  0  0  0  0  0  0  0  0
   -1.8125    0.7000    0.0000 C   0  0  0  0  0  0  0  0  0  0  0  0
    1.8083   -1.1958    0.0000 C   0  0  0  0  0  0  0  0  0  0  0  0
    1.3417   -1.8792    0.0000 C   0  0  0  0  0  0  0  0  0  0  0  0
   -1.1000    1.9375    0.0000 C   0  0  0  0  0  0  0  0  0  0  0  0
   -1.8125    1.5250    0.0000 C   0  0  0  0  0  0  0  0  0  0  0  0
  2  1  1  0
  3  1  1  0
  4  2  2  0
  5  1  1  0
  6  4  1  0
  7  5  2  0
  8  7  1  0
  9  3  2  0
 10  3  1  0
  6 11  1  1
 12  2  1  0
 13  4  1  0
 14  5  1  0
 15  7  1  0
 16 12  2  0
 17 16  1  0
 18 14  2  0
 19 18  1  0
  6  8  1  0
 15 19  2  0
 17 13  2  0
M  END
> <chembl_id>
CHEMBL315985

> <chembl_pref_name>
ESLICARBAZEPINE

$$$$

     RDKit          2D

 16 17  0  0  0  0  0  0  0  0999 V2000
    5.7000   -5.1875    0.0000 C   0  0  0  0  0  0  0  0  0  0  0  0
    5.0750   -4.8542    0.0000 O   0  0  0  0  0  0  0  0  0  0  0  0
    5.7167   -5.9000    0.0000 O   0  0  0  0  0  0  0  0  0  0  0  0
    6.3125   -4.8292    0.0000 C   0  0  0  0  0  0  0  0  0  0  0  0
    4.4750   -5.2125    0.0000 C   0  0  0  0  0  0  0  0  0  0  0  0
    3.8500   -4.8792    0.0000 C   0  0  0  0  0  0  0  0  0  0  0  0
    6.9292   -5.1667    0.0000 C   0  0  0  0  0  0  0  0  0  0  0  0
    6.2917   -4.1167    0.0000 C   0  0  0  0  0  0  0  0  0  0  0  0
    3.8375   -4.1667    0.0000 C   0  0  0  0  0  0  0  0  0  0  0  0
    3.2417   -5.2375    0.0000 C   0  0  0  0  0  0  0  0  0  0  0  0
    7.5417   -4.8042    0.0000 C   0  0  0  0  0  0  0  0  0  0  0  0
    6.9042   -3.7542    0.0000 C   0  0  0  0  0  0  0  0  0  0  0  0
    3.2125   -3.8250    0.0000 C   0  0  0  0  0  0  0  0  0  0  0  0
    2.6167   -4.9000    0.0000 C   0  0  0  0  0  0  0  0  0  0  0  0
    7.5292   -4.0917    0.0000 C   0  0  0  0  0  0  0  0  0  0  0  0
    2.6042   -4.1875    0.0000 C   0  0  0  0  0  0  0  0  0  0  0  0
  2  1  1  0
  3  1  2  0
  4  1  1  0
  5  2  1  0
  6  5  1  0
  7  4  2  0
  8  4  1  0
  9  6  2  0
 10  6  1  0
 11  7  1  0
 12  8  2  0
 13  9  1  0
 14 10  2  0
 15 12  1  0
 16 14  1  0
 15 11  2  0
 16 13  2  0
M  END
> <chembl_id>
CHEMBL1239

> <chembl_pref_name>
BENZYL BENZOATE

$$$$

     RDKit          2D

 12 12  0  0  0  0  0  0  0  0999 V2000
    6.7917   -4.4750    0.0000 C   0  0  0  0  0  0  0  0  0  0  0  0
    6.7917   -3.7750    0.0000 N   0  0  0  0  0  0  0  0  0  0  0  0
    6.1750   -4.8292    0.0000 N   0  0  0  0  0  0  0  0  0  0  0  0
    3.1042   -4.5042    0.0000 I   0  0  0  0  0  0  0  0  0  0  0  0
    7.4000   -4.8292    0.0000 N   0  0  0  0  0  0  0  0  0  0  0  0
    3.7000   -4.8417    0.0000 C   0  0  0  0  0  0  0  0  0  0  0  0
    5.5667   -4.4750    0.0000 C   0  0  0  0  0  0  0  0  0  0  0  0
    4.3125   -4.4875    0.0000 C   0  0  0  0  0  0  0  0  0  0  0  0
    4.9292   -4.8250    0.0000 C   0  0  0  0  0  0  0  0  0  0  0  0
    4.3125   -5.9125    0.0000 C   0  0  0  0  0  0  0  0  0  0  0  0
    3.7000   -5.5542    0.0000 C   0  0  0  0  0  0  0  0  0  0  0  0
    4.9292   -5.5542    0.0000 C   0  0  0  0  0  0  0  0  0  0  0  0
  2  1  2  0
  3  1  1  0
  4  6  1  0
  5  1  1  0
  6  8  2  0
  7  3  1  0
  8  9  1  0
  9  7  1  0
 10 12  1  0
 11 10  2  0
 12  9  2  0
  6 11  1  0
M  END
> <chembl_id>
CHEMBL818

> <chembl_pref_name>
IOBENGUANE

$$$$

     RDKit          2D

 14 13  0  0  0  0  0  0  0  0999 V2000
    5.2269  -13.4357    0.0000 C   0  0  0  0  0  0  0  0  0  0  0  0
    5.9413  -13.0232    0.0000 C   0  0  0  0  0  0  0  0  0  0  0  0
    6.6558  -13.4357    0.0000 N   0  0  0  0  0  0  0  0  0  0  0  0
    7.3703  -13.0232    0.0000 C   0  0  0  0  0  0  0  0  0  0  0  0
    8.0848  -13.4357    0.0000 C   0  0  0  0  0  0  0  0  0  0  0  0
    8.7992  -13.0232    0.0000 N   0  0  0  0  0  0  0  0  0  0  0  0
    9.5137  -13.4357    0.0000 C   0  0  0  0  0  0  0  0  0  0  0  0
   10.2282  -13.0232    0.0000 C   0  0  0  0  0  0  0  0  0  0  0  0
   10.9426  -13.4357    0.0000 C   0  0  0  0  0  0  0  0  0  0  0  0
    9.5137  -14.2607    0.0000 C   0  0  0  0  0  0  0  0  0  0  0  0
    8.7992  -14.6732    0.0000 O   0  0  0  0  0  0  0  0  0  0  0  0
    5.9413  -12.1982    0.0000 C   0  0  0  0  0  0  0  0  0  0  0  0
    6.6558  -11.7857    0.0000 O   0  0  0  0  0  0  0  0  0  0  0  0
    5.2269  -14.2607    0.0000 C   0  0  0  0  0  0  0  0  0  0  0  0
  3  4  1  0
  7  8  1  0
  8  9  1  0
  4  5  1  0
  7 10  1  1
  2  3  1  0
 10 11  1  0
  5  6  1  0
  2 12  1  1
  1  2  1  0
 12 13  1  0
  6  7  1  0
  1 14  1  0
M  END
> <chembl_id>
CHEMBL44884

> <chembl_pref_name>
ETHAMBUTOL

$$$$

     RDKit          2D

  8  6  0  0  0  0  0  0  0  0999 V2000
    0.9792    1.2458    0.0000 Cl  0  0  0  0  0  0  0  0  0  0  0  0
   -1.3625   -0.1167    0.0000 N   0  0  0  0  0  0  0  0  0  0  0  0
    2.2292   -1.3542    0.0000 O   0  0  0  0  0  0  0  0  0  0  0  0
    0.0667   -0.1167    0.0000 C   0  0  0  0  0  0  0  0  0  0  0  0
   -1.6833   -1.5042    0.0000 C   0  0  0  0  0  0  0  0  0  0  0  0
   -2.0833    1.1208    0.0000 C   0  0  0  0  0  0  0  0  0  0  0  0
   -2.3375   -1.1542    0.0000 C   0  0  0  0  0  0  0  0  0  0  0  0
    0.7875   -1.3542    0.0000 C   0  0  0  0  0  0  0  0  0  0  0  0
  3  8  1  0
  4  2  1  0
  5  2  1  0
  6  2  1  0
  7  2  1  0
  8  4  1  0
M  CHG  2   1  -1   2   1
M  END
> <chembl_id>
CHEMBL282468

> <chembl_pref_name>
CHOLINE CHLORIDE

$$$$

     RDKit          2D

 17 18  0  0  0  0  0  0  0  0999 V2000
    5.7646    1.0536    0.0000 C   0  0  0  0  0  0  0  0  0  0  0  0
    5.7746   -0.3753    0.0000 C   0  0  0  0  0  0  0  0  0  0  0  0
    6.1821    0.3420    0.0000 C   0  0  0  0  0  0  0  0  0  0  0  0
    4.9396    1.0479    0.0000 N   0  0  0  0  0  0  0  0  0  0  0  0
    4.9496   -0.3810    0.0000 N   0  0  0  0  0  0  0  0  0  0  0  0
    4.5321    0.3305    0.0000 C   0  0  0  0  0  0  0  0  0  0  0  0
    6.1800   -1.0938    0.0000 O   0  0  0  0  0  0  0  0  0  0  0  0
    6.1739    1.7699    0.0000 O   0  0  0  0  0  0  0  0  0  0  0  0
    6.8990    0.7568    0.0000 C   0  0  0  0  0  0  0  0  0  0  0  0
    3.7071    0.3282    0.0000 O   0  0  0  0  0  0  0  0  0  0  0  0
    6.8987   -0.0667    0.0000 C   0  0  0  0  0  0  0  0  0  0  0  0
    7.5992    0.3252    0.0000 C   0  0  0  0  0  0  0  0  0  0  0  0
    6.9158    1.5769    0.0000 C   0  0  0  0  0  0  0  0  0  0  0  0
    6.9623   -0.8892    0.0000 C   0  0  0  0  0  0  0  0  0  0  0  0
    8.3257    0.7161    0.0000 C   0  0  0  0  0  0  0  0  0  0  0  0
    7.6351    1.9749    0.0000 C   0  0  0  0  0  0  0  0  0  0  0  0
    8.3473    1.5433    0.0000 C   0  0  0  0  0  0  0  0  0  0  0  0
  2  3  1  0
  3  1  1  0
  4  1  1  0
  5  6  1  0
  6  4  1  0
  7  2  2  0
  8  1  2  0
  9  3  1  0
 10  6  2  0
 11  3  1  0
 12  9  2  0
 13  9  1  0
 14 11  1  0
 15 12  1  0
 16 13  2  0
 17 16  1  0
  2  5  1  0
 15 17  2  0
M  END
> <chembl_id>
CHEMBL40

> <chembl_pref_name>
PHENOBARBITAL

$$$$

     RDKit          2D

 20 21  0  0  0  0  0  0  0  0999 V2000
    4.7667   -5.0167    0.0000 C   0  0  0  0  0  0  0  0  0  0  0  0
    5.3750   -4.6667    0.0000 C   0  0  0  0  0  0  0  0  0  0  0  0
    4.1542   -4.6500    0.0000 C   0  0  0  0  0  0  0  0  0  0  0  0
    5.9917   -5.0292    0.0000 C   0  0  0  0  0  0  0  0  0  0  0  0
    4.7542   -5.7167    0.0000 C   0  0  0  0  0  0  0  0  0  0  0  0
    5.3875   -3.9625    0.0000 C   0  0  0  0  0  0  0  0  0  0  0  0
    3.5375   -5.0042    0.0000 C   0  0  0  0  0  0  0  0  0  0  0  0
    4.1542   -3.9500    0.0000 C   0  0  0  0  0  0  0  0  0  0  0  0
    5.9875   -5.7292    0.0000 C   0  0  0  0  0  0  0  0  0  0  0  0
    6.6042   -4.6792    0.0000 C   0  0  0  0  0  0  0  0  0  0  0  0
    2.9250   -3.9292    0.0000 C   0  0  0  0  0  0  0  0  0  0  0  0
    7.2167   -5.7542    0.0000 C   0  0  0  0  0  0  0  0  0  0  0  0
    6.6042   -6.1000    0.0000 C   0  0  0  0  0  0  0  0  0  0  0  0
    7.2292   -5.0417    0.0000 C   0  0  0  0  0  0  0  0  0  0  0  0
    2.9250   -4.6375    0.0000 C   0  0  0  0  0  0  0  0  0  0  0  0
    3.5375   -3.5792    0.0000 C   0  0  0  0  0  0  0  0  0  0  0  0
    2.3042   -3.5750    0.0000 O   0  0  0  0  0  0  0  0  0  0  0  0
    7.8417   -6.1042    0.0000 O   0  0  0  0  0  0  0  0  0  0  0  0
    4.1417   -6.0750    0.0000 C   0  0  0  0  0  0  0  0  0  0  0  0
    6.0042   -3.6042    0.0000 C   0  0  0  0  0  0  0  0  0  0  0  0
  2  1  1  0
  3  1  1  0
  4  2  1  0
  5  1  2  0
  6  2  2  0
  7  3  2  0
  8  3  1  0
  9  4  2  0
 10  4  1  0
 11 16  1  0
 12 14  1  0
 13  9  1  0
 14 10  2  0
 15  7  1  0
 16  8  2  0
 17 11  1  0
 18 12  1  0
 19  5  1  0
 20  6  1  0
 11 15  2  0
 12 13  2  0
M  END
> <chembl_id>
CHEMBL1018

> <chembl_pref_name>
DIENESTROL

$$$$

     RDKit          2D

 17 18  0  0  0  0  0  0  0  0999 V2000
    5.2833  -10.5076    0.0000 N   0  0  0  0  0  0  0  0  0  0  0  0
    4.4604  -10.5076    0.0000 N   0  0  0  0  0  0  0  0  0  0  0  0
    5.7720   -9.8569    0.0000 C   0  0  0  0  0  0  0  0  0  0  0  0
    5.7737  -11.1879    0.0000 N   0  0  0  0  0  0  0  0  0  0  0  0
    4.0472   -9.7805    0.0000 C   0  0  0  0  0  0  0  0  0  0  0  0
    4.0400  -11.2190    0.0000 C   0  0  0  0  0  0  0  0  0  0  0  0
    6.5526  -10.1219    0.0000 C   0  0  0  0  0  0  0  0  0  0  0  0
    6.5584  -10.9326    0.0000 O   0  0  0  0  0  0  0  0  0  0  0  0
    3.2222   -9.7782    0.0000 C   0  0  0  0  0  0  0  0  0  0  0  0
    3.2149  -11.2124    0.0000 C   0  0  0  0  0  0  0  0  0  0  0  0
    7.2227   -9.6371    0.0000 N   0  0  0  0  0  0  0  0  0  0  0  0
    2.8061  -10.4985    0.0000 O   0  0  0  0  0  0  0  0  0  0  0  0
    7.9779   -9.9729    0.0000 C   0  0  0  0  0  0  0  0  0  0  0  0
    8.6187   -9.4541    0.0000 O   0  0  0  0  0  0  0  0  0  0  0  0
    8.0633  -10.7977    0.0000 O   0  0  0  0  0  0  0  0  0  0  0  0
    9.3921   -9.7513    0.0000 C   0  0  0  0  0  0  0  0  0  0  0  0
   10.0328   -9.2327    0.0000 C   0  0  0  0  0  0  0  0  0  0  0  0
  1  2  1  0
  1  3  1  0
  1  4  2  0
  2  5  1  0
  2  6  1  0
  3  7  2  0
  4  8  1  0
  5  9  1  0
  6 10  1  0
  7 11  1  0
  7  8  1  0
  9 12  1  0
 10 12  1  0
 11 13  1  0
 13 14  1  0
 13 15  2  0
 14 16  1  0
 16 17  1  0
M  CHG  2   1   1  11  -1
M  END
> <chembl_id>
CHEMBL1329455

> <chembl_pref_name>
MOLSIDOMINE

$$$$

     RDKit          2D

 18 19  0  0  0  0  0  0  0  0999 V2000
    0.4625    0.0625    0.0000 C   0  0  0  0  0  0  0  0  0  0  0  0
   -0.5125    0.6250    0.0000 C   0  0  0  0  0  0  0  0  0  0  0  0
    0.4625   -1.0417    0.0000 C   0  0  0  0  0  0  0  0  0  0  0  0
    1.4167    0.6250    0.0000 C   0  0  0  0  0  0  0  0  0  0  0  0
    1.4167   -1.6125    0.0000 C   0  0  0  0  0  0  0  0  0  0  0  0
   -1.4708    0.0625    0.0000 C   0  0  0  0  0  0  0  0  0  0  0  0
   -0.5125    1.7375    0.0000 O   0  0  0  0  0  0  0  0  0  0  0  0
   -1.4708   -1.0542    0.0000 C   0  0  0  0  0  0  0  0  0  0  0  0
   -2.4500    0.6083    0.0000 C   0  0  0  0  0  0  0  0  0  0  0  0
    2.3792   -1.0417    0.0000 C   0  0  0  0  0  0  0  0  0  0  0  0
   -0.5125   -1.6375    0.0000 O   0  0  0  0  0  0  0  0  0  0  0  0
    2.3792    0.0625    0.0000 C   0  0  0  0  0  0  0  0  0  0  0  0
   -2.4333   -1.6125    0.0000 C   0  0  0  0  0  0  0  0  0  0  0  0
   -3.3875    0.0458    0.0000 C   0  0  0  0  0  0  0  0  0  0  0  0
   -3.3875   -1.0917    0.0000 C   0  0  0  0  0  0  0  0  0  0  0  0
    3.3542   -1.6125    0.0000 O   0  0  0  0  0  0  0  0  0  0  0  0
   -4.3458   -1.6792    0.0000 C   0  0  0  0  0  0  0  0  0  0  0  0
    4.3417   -1.0667    0.0000 C   0  0  0  0  0  0  0  0  0  0  0  0
  2  1  1  0
  3  1  2  0
  4  1  1  0
  5  3  1  0
  6  2  1  0
  7  2  2  0
  8  6  1  0
  9  6  2  0
 10 12  1  0
 11  3  1  0
 12  4  2  0
 13  8  2  0
 14  9  1  0
 15 14  2  0
 16 10  1  0
 17 15  1  0
 18 16  1  0
  5 10  2  0
 13 15  1  0
M  END
> <chembl_id>
CHEMBL1898387

> <chembl_pref_name>
MEXENONE

$$$$

     RDKit          2D

 21 22  0  0  1  0  0  0  0  0999 V2000
    0.0292    0.2208    0.0000 C   0  0  0  0  0  0  0  0  0  0  0  0
    0.7417    0.6458    0.0000 N   0  0  0  0  0  0  0  0  0  0  0  0
    1.4750    0.2250    0.0000 C   0  0  0  0  0  0  0  0  0  0  0  0
   -1.4083    0.2208    0.0000 N   0  0  0  0  0  0  0  0  0  0  0  0
   -0.6875    0.6333    0.0000 C   0  0  0  0  0  0  0  0  0  0  0  0
    0.0292   -0.6167    0.0000 O   0  0  0  0  0  0  0  0  0  0  0  0
    1.4750   -0.6042    0.0000 C   0  0  0  0  0  0  0  0  0  0  0  0
    2.1792    0.6583    0.0000 C   0  0  0  0  0  0  0  0  0  0  0  0
   -1.4125   -0.6167    0.0000 C   0  0  0  0  0  0  0  0  0  0  0  0
   -2.1250    0.6333    0.0000 C   0  0  0  0  0  0  0  0  0  0  0  0
    2.9125   -0.6000    0.0000 C   0  0  0  0  0  0  0  0  0  0  0  0
   -0.6875    1.4625    0.0000 C   0  0  0  0  0  0  0  0  0  0  0  0
    2.9042    0.2333    0.0000 C   0  0  0  0  0  0  0  0  0  0  0  0
    2.1875   -1.0167    0.0000 C   0  0  0  0  0  0  0  0  0  0  0  0
    2.1667    1.4458    0.0000 C   0  0  0  0  0  0  0  0  0  0  0  0
    0.8417   -1.0125    0.0000 C   0  0  0  0  0  0  0  0  0  0  0  0
   -2.1375   -1.0292    0.0000 C   0  0  0  0  0  0  0  0  0  0  0  0
   -2.1458   -1.8667    0.0000 C   0  0  0  0  0  0  0  0  0  0  0  0
   -2.1250    1.4625    0.0000 C   0  0  0  0  0  0  0  0  0  0  0  0
   -1.4083    1.8833    0.0000 C   0  0  0  0  0  0  0  0  0  0  0  0
   -2.8625   -2.2792    0.0000 C   0  0  0  0  0  0  0  0  0  0  0  0
  2  1  1  0
  3  2  1  0
  4  5  1  0
  5  1  1  1
  6  1  2  0
  7  3  2  0
  8  3  1  0
  9  4  1  0
 10  4  1  0
 11 13  1  0
 12  5  1  0
 13  8  2  0
 14  7  1  0
 15  8  1  0
 16  7  1  0
 17  9  1  0
 18 17  1  0
 19 20  1  0
 20 12  1  0
 21 18  1  0
 10 19  1  0
 14 11  2  0
M  END
> <chembl_id>
CHEMBL1201193

> <chembl_pref_name>
LEVOBUPIVACAINE

$$$$

     RDKit          2D

  9  7  0  0  0  0  0  0  0  0999 V2000
    7.2333   -4.9042    0.0000 Na  0  0  0  0  0 15  0  0  0  0  0  0
    5.9333   -4.9667    0.0000 C   0  0  0  0  0  0  0  0  0  0  0  0
    4.0917   -4.6167    0.0000 C   0  0  0  0  0  0  0  0  0  0  0  0
    6.5458   -4.6167    0.0000 O   0  0  0  0  0  0  0  0  0  0  0  0
    3.4792   -4.9667    0.0000 O   0  0  0  0  0  0  0  0  0  0  0  0
    5.9333   -5.6792    0.0000 O   0  0  0  0  0  0  0  0  0  0  0  0
    4.0917   -3.9042    0.0000 O   0  0  0  0  0  0  0  0  0  0  0  0
    4.7083   -4.9667    0.0000 C   0  0  0  0  0  0  0  0  0  0  0  0
    5.3208   -4.6167    0.0000 C   0  0  0  0  0  0  0  0  0  0  0  0
  3  8  1  0
  4  2  1  0
  5  3  1  0
  6  2  2  0
  7  3  2  0
  8  9  1  0
  9  2  1  0
M  CHG  2   1   1   4  -1
M  END
> <chembl_id>
CHEMBL1200345

> <chembl_pref_name>
SODIUM SUCCINATE

$$$$

     RDKit          2D

  8  8  0  0  0  0  0  0  0  0999 V2000
   -0.7083   -0.2375    0.0000 N   0  0  0  0  0  0  0  0  0  0  0  0
    0.5417    0.4708    0.0000 C   0  0  0  0  0  0  0  0  0  0  0  0
    1.8167   -0.2417    0.0000 S   0  0  0  0  0  0  0  0  0  0  0  0
   -0.7083   -1.6625    0.0000 O   0  0  0  0  0  0  0  0  0  0  0  0
   -1.9208    0.4958    0.0000 C   0  0  0  0  0  0  0  0  0  0  0  0
    0.5417    1.9000    0.0000 C   0  0  0  0  0  0  0  0  0  0  0  0
   -1.9208    1.9208    0.0000 C   0  0  0  0  0  0  0  0  0  0  0  0
   -0.6583    2.6458    0.0000 C   0  0  0  0  0  0  0  0  0  0  0  0
  2  1  1  0
  3  2  2  0
  4  1  1  0
  5  1  1  0
  6  2  1  0
  7  5  2  0
  8  7  1  0
  6  8  2  0
M  END
> <chembl_id>
CHEMBL1650619

> <chembl_pref_name>
PYRITHIONE

$$$$

     RDKit          2D

 20 23  0  0  0  0  0  0  0  0999 V2000
    5.3542   -4.1292    0.0000 C   0  0  0  0  0  0  0  0  0  0  0  0
    5.3542   -3.4542    0.0000 C   0  0  0  0  0  0  0  0  0  0  0  0
    4.1750   -4.1292    0.0000 C   0  0  0  0  0  0  0  0  0  0  0  0
    4.7667   -4.4667    0.0000 C   0  0  0  0  0  0  0  0  0  0  0  0
    4.1750   -3.4542    0.0000 C   0  0  0  0  0  0  0  0  0  0  0  0
    5.9542   -4.4667    0.0000 C   0  0  0  0  0  0  0  0  0  0  0  0
    5.9542   -3.1167    0.0000 C   0  0  0  0  0  0  0  0  0  0  0  0
    6.5417   -4.1292    0.0000 N   0  0  0  0  0  0  0  0  0  0  0  0
    4.7667   -5.1750    0.0000 C   0  0  0  0  0  0  0  0  0  0  0  0
    6.5417   -3.4542    0.0000 C   0  0  0  0  0  0  0  0  0  0  0  0
    3.5792   -4.4667    0.0000 C   0  0  0  0  0  0  0  0  0  0  0  0
    3.5792   -3.1167    0.0000 C   0  0  0  0  0  0  0  0  0  0  0  0
    7.1542   -4.4792    0.0000 C   0  0  0  0  0  0  0  0  0  0  0  0
    5.3792   -5.5125    0.0000 C   0  0  0  0  0  0  0  0  0  0  0  0
    4.1542   -5.5167    0.0000 C   0  0  0  0  0  0  0  0  0  0  0  0
    2.9917   -4.1292    0.0000 C   0  0  0  0  0  0  0  0  0  0  0  0
    2.9917   -3.4542    0.0000 C   0  0  0  0  0  0  0  0  0  0  0  0
    5.3792   -6.2167    0.0000 C   0  0  0  0  0  0  0  0  0  0  0  0
    4.1625   -6.2167    0.0000 C   0  0  0  0  0  0  0  0  0  0  0  0
    4.7792   -6.5667    0.0000 C   0  0  0  0  0  0  0  0  0  0  0  0
  2  1  2  0
  3  4  1  0
  4  1  1  0
  5  2  1  0
  6  1  1  0
  7  2  1  0
  8  6  1  0
  9  4  1  0
 10  8  1  0
 11  3  1  0
 12  5  1  0
 13  8  1  0
 14  9  1  0
 15  9  2  0
 16 11  2  0
 17 12  2  0
 18 14  2  0
 19 15  1  0
 20 19  2  0
  3  5  2  0
  7 10  1  0
 16 17  1  0
 18 20  1  0
M  END
> <chembl_id>
CHEMBL278398

> <chembl_pref_name>
PHENINDAMINE

$$$$

     RDKit          2D

 13 14  0  0  0  0  0  0  0  0999 V2000
   -0.5801    0.7996    0.0000 N   0  0  0  0  0  0  0  0  0  0  0  0
   -1.3871    0.9711    0.0000 C   0  0  0  0  0  0  0  0  0  0  0  0
   -1.6420    1.7557    0.0000 C   0  0  0  0  0  0  0  0  0  0  0  0
   -1.8970    2.5404    0.0000 C   0  0  0  0  0  0  0  0  0  0  0  0
   -0.3252    0.0150    0.0000 C   0  0  0  0  0  0  0  0  0  0  0  0
   -0.8101   -0.6525    0.0000 C   0  0  0  0  0  0  0  0  0  0  0  0
   -0.3252   -1.3199    0.0000 C   0  0  0  0  0  0  0  0  0  0  0  0
    0.4594   -1.0650    0.0000 C   0  0  0  0  0  0  0  0  0  0  0  0
    0.4594   -0.2400    0.0000 C   0  0  0  0  0  0  0  0  0  0  0  0
    1.1739    0.1725    0.0000 C   0  0  0  0  0  0  0  0  0  0  0  0
    1.1739   -1.4775    0.0000 C   0  0  0  0  0  0  0  0  0  0  0  0
    1.8884   -1.0650    0.0000 C   0  0  0  0  0  0  0  0  0  0  0  0
    1.8884   -0.2400    0.0000 C   0  0  0  0  0  0  0  0  0  0  0  0
  2  1  1  0
  5  1  1  1
  2  3  1  0
  3  4  3  0
  6  5  1  0
  9  5  1  0
  6  7  1  0
  7  8  1  0
  8  9  2  0
  8 11  1  0
 10  9  1  0
 13 10  2  0
 11 12  2  0
 12 13  1  0
M  END
> <chembl_id>
CHEMBL887

> <chembl_pref_name>
RASAGILINE

$$$$

     RDKit          2D

 16 16  0  0  0  0  0  0  0  0999 V2000
    6.2417   -8.2917    0.0000 C   0  0  0  0  0  0  0  0  0  0  0  0
    6.8500   -9.3542    0.0000 C   0  0  0  0  0  0  0  0  0  0  0  0
    6.2417   -9.0000    0.0000 C   0  0  0  0  0  0  0  0  0  0  0  0
    7.4625   -9.0000    0.0000 N   0  0  0  0  0  0  0  0  0  0  0  0
    6.8500   -7.9375    0.0000 N   0  0  0  0  0  0  0  0  0  0  0  0
    7.4625   -8.2917    0.0000 C   0  0  0  0  0  0  0  0  0  0  0  0
    6.8500  -10.0625    0.0000 O   0  0  0  0  0  0  0  0  0  0  0  0
    5.6250   -7.9375    0.0000 O   0  0  0  0  0  0  0  0  0  0  0  0
    8.0792   -7.9375    0.0000 O   0  0  0  0  0  0  0  0  0  0  0  0
    5.8792   -9.6125    0.0000 C   0  0  0  0  0  0  0  0  0  0  0  0
    5.5292   -9.0000    0.0000 C   0  0  0  0  0  0  0  0  0  0  0  0
    5.1792   -9.6125    0.0000 C   0  0  0  0  0  0  0  0  0  0  0  0
    6.2333  -10.2250    0.0000 C   0  0  0  0  0  0  0  0  0  0  0  0
    5.1792   -8.3833    0.0000 C   0  0  0  0  0  0  0  0  0  0  0  0
    4.8167  -10.2167    0.0000 C   0  0  0  0  0  0  0  0  0  0  0  0
    4.1083  -10.2125    0.0000 C   0  0  0  0  0  0  0  0  0  0  0  0
  2  3  1  0
  3  1  1  0
  4  2  1  0
  5  1  1  0
  6  5  1  0
  7  2  2  0
  8  1  2  0
  9  6  2  0
 10  3  1  0
 11  3  1  0
 12 10  1  0
 13 10  1  0
 14 11  1  0
 15 12  1  0
 16 15  1  0
  6  4  1  0
M  END
> <chembl_id>
CHEMBL448

> <chembl_pref_name>
PENTOBARBITAL

$$$$

     RDKit          2D

 16 13  0  0  0  0  0  0  0  0999 V2000
    4.3018   -6.0402    0.0000 Cl  0  0  0  0  0  0  0  0  0  0  0  0
   -0.1127   -3.1046    0.0000 C   0  0  0  0  0  0  0  0  0  0  0  0
    0.6974   -2.9487    0.0000 C   0  0  0  0  0  0  0  0  0  0  0  0
    1.2375   -3.5724    0.0000 C   0  0  0  0  0  0  0  0  0  0  0  0
    0.9675   -4.3519    0.0000 C   0  0  0  0  0  0  0  0  0  0  0  0
    0.1573   -4.5078    0.0000 O   0  0  0  0  0  0  0  0  0  0  0  0
    2.0476   -3.4164    0.0000 N   0  0  0  0  0  0  0  0  0  0  0  0
    2.5877   -4.0401    0.0000 C   0  0  0  0  0  0  0  0  0  0  0  0
    3.3979   -3.8842    0.0000 C   0  0  0  0  0  0  0  0  0  0  0  0
    3.9379   -4.5078    0.0000 N   0  0  0  0  0  0  0  0  0  0  0  0
    4.7481   -4.3519    0.0000 C   0  0  0  0  0  0  0  0  0  0  0  0
    5.2882   -4.9755    0.0000 C   0  0  0  0  0  0  0  0  0  0  0  0
    6.0983   -4.8196    0.0000 C   0  0  0  0  0  0  0  0  0  0  0  0
    5.0181   -3.5724    0.0000 C   0  0  0  0  0  0  0  0  0  0  0  0
    5.8283   -3.4164    0.0000 O   0  0  0  0  0  0  0  0  0  0  0  0
    2.3028   -5.3348    0.0000 Cl  0  0  0  0  0  0  0  0  0  0  0  0
  2  3  1  0
  3  4  1  0
  4  5  1  0
  5  6  1  0
  4  7  1  6
  7  8  1  0
  8  9  1  0
  9 10  1  0
 11 10  1  6
 11 12  1  0
 12 13  1  0
 11 14  1  0
 14 15  1  0
M  END
> <chembl_id>
CHEMBL3140361

> <chembl_pref_name>
ETHAMBUTOL HYDROCHLORIDE

$$$$

     RDKit          2D

 19 19  0  0  0  0  0  0  0  0999 V2000
   -2.7458   -0.0792    0.0000 N   0  0  0  0  0  0  0  0  0  0  0  0
   -1.7458    0.5000    0.0000 C   0  0  0  0  0  0  0  0  0  0  0  0
   -2.7458   -1.2292    0.0000 C   0  0  0  0  0  0  0  0  0  0  0  0
   -0.7458   -0.0792    0.0000 C   0  0  0  0  0  0  0  0  0  0  0  0
   -1.7458   -1.8042    0.0000 N   0  0  0  0  0  0  0  0  0  0  0  0
   -0.7458   -1.2292    0.0000 C   0  0  0  0  0  0  0  0  0  0  0  0
    1.0042    0.8833    0.0000 C   0  0  0  0  0  0  0  0  0  0  0  0
    2.1542    0.8583    0.0000 C   0  0  0  0  0  0  0  0  0  0  0  0
   -1.7458    1.6500    0.0000 O   0  0  0  0  0  0  0  0  0  0  0  0
   -0.1458    0.9083    0.0000 C   0  0  0  0  0  0  0  0  0  0  0  0
   -3.7375   -1.8042    0.0000 O   0  0  0  0  0  0  0  0  0  0  0  0
    0.2542   -1.8042    0.0000 O   0  0  0  0  0  0  0  0  0  0  0  0
    0.3917   -0.2792    0.0000 C   0  0  0  0  0  0  0  0  0  0  0  0
   -3.7375    0.5000    0.0000 C   0  0  0  0  0  0  0  0  0  0  0  0
    0.7875   -1.3625    0.0000 C   0  0  0  0  0  0  0  0  0  0  0  0
    1.9167   -1.5625    0.0000 C   0  0  0  0  0  0  0  0  0  0  0  0
    3.3125    0.8333    0.0000 C   0  0  0  0  0  0  0  0  0  0  0  0
   -0.7000    1.9208    0.0000 C   0  0  0  0  0  0  0  0  0  0  0  0
    3.8667   -0.1792    0.0000 C   0  0  0  0  0  0  0  0  0  0  0  0
  2  1  1  0
  3  1  1  0
  4  2  1  0
  5  3  1  0
  6  5  1  0
  7 10  1  0
  8  7  3  0
  9  2  2  0
 10  4  1  0
 11  3  2  0
 12  6  2  0
 13  4  1  0
 14  1  1  0
 15 13  1  0
 16 15  2  0
 17  8  1  0
 18 10  1  0
 19 17  1  0
  4  6  1  0
M  END
> <chembl_id>
CHEMBL7413

> <chembl_pref_name>
METHOHEXITAL

$$$$

     RDKit          2D

 10 10  0  0  0  0  0  0  0  0999 V2000
    0.8125    1.9208    0.0000 C   0  0  0  0  0  0  0  0  0  0  0  0
    0.0667    0.6833    0.0000 C   0  0  0  0  0  0  0  0  0  0  0  0
    2.2167    1.9708    0.0000 O   0  0  0  0  0  0  0  0  0  0  0  0
    0.7875   -0.5625    0.0000 C   0  0  0  0  0  0  0  0  0  0  0  0
   -1.3458    0.6708    0.0000 C   0  0  0  0  0  0  0  0  0  0  0  0
    0.0667    3.1708    0.0000 O   0  0  0  0  0  0  0  0  0  0  0  0
   -1.3708   -1.7917    0.0000 C   0  0  0  0  0  0  0  0  0  0  0  0
   -2.1083   -3.0375    0.0000 N   0  0  0  0  0  0  0  0  0  0  0  0
   -2.0708   -0.5667    0.0000 C   0  0  0  0  0  0  0  0  0  0  0  0
    0.0667   -1.7917    0.0000 C   0  0  0  0  0  0  0  0  0  0  0  0
  2  1  1  0
  3  1  2  0
  4  2  2  0
  5  2  1  0
  6  1  1  0
  7  9  1  0
  8  7  1  0
  9  5  2  0
 10  4  1  0
 10  7  2  0
M  END
> <chembl_id>
CHEMBL542

> <chembl_pref_name>
AMINOBENZOIC ACID

$$$$

     RDKit          2D

 11 10  0  0  0  0  0  0  0  0999 V2000
   -0.1125   -3.8375    0.0000 N   0  0  0  0  0  0  0  0  0  0  0  0
    2.3417   -3.8375    0.0000 C   0  0  0  0  0  0  0  0  0  0  0  0
    1.7250   -3.4792    0.0000 O   0  0  0  0  0  0  0  0  0  0  0  0
    2.3417   -4.5417    0.0000 O   0  0  0  0  0  0  0  0  0  0  0  0
    0.5000   -3.4792    0.0000 C   0  0  0  0  0  0  0  0  0  0  0  0
    1.1125   -3.8375    0.0000 C   0  0  0  0  0  0  0  0  0  0  0  0
   -0.7292   -3.4792    0.0000 C   0  0  0  0  0  0  0  0  0  0  0  0
    0.2375   -4.4458    0.0000 C   0  0  0  0  0  0  0  0  0  0  0  0
   -0.4708   -4.4458    0.0000 C   0  0  0  0  0  0  0  0  0  0  0  0
    2.9542   -3.4792    0.0000 C   0  0  0  0  0  0  0  0  0  0  0  0
    1.1125   -4.5417    0.0000 C   0  0  0  0  0  0  0  0  0  0  0  0
  2  3  1  0
  3  6  1  0
  4  2  2  0
  5  1  1  0
  6  5  1  0
  7  1  1  0
  8  1  1  0
  9  1  1  0
 10  2  1  0
 11  6  1  0
M  CHG  1   1   1
M  END
> <chembl_id>
CHEMBL978

> <chembl_pref_name>
METHACHOLINE

$$$$

     RDKit          2D

 18 19  0  0  0  0  0  0  0  0999 V2000
    3.2750    2.0625    0.0000 O   0  0  0  0  0  0  0  0  0  0  0  0
   -3.7458   -0.6250    0.0000 O   0  0  0  0  0  0  0  0  0  0  0  0
   -3.2000   -1.6042    0.0000 C   0  0  0  0  0  0  0  0  0  0  0  0
    3.0792    0.8250    0.0000 C   0  0  0  0  0  0  0  0  0  0  0  0
   -4.3458   -1.6042    0.0000 C   0  0  0  0  0  0  0  0  0  0  0  0
    4.3417    1.1083    0.0000 C   0  0  0  0  0  0  0  0  0  0  0  0
   -2.1833   -2.2125    0.0000 C   0  0  0  0  0  0  0  0  0  0  0  0
    2.6667    0.0833    0.0000 C   0  0  0  0  0  0  0  0  0  0  0  0
    1.5167    0.0833    0.0000 O   0  0  0  0  0  0  0  0  0  0  0  0
   -1.1583   -1.6292    0.0000 O   0  0  0  0  0  0  0  0  0  0  0  0
    1.5417   -1.4000    0.0000 O   0  0  0  0  0  0  0  0  0  0  0  0
   -1.2458    0.2083    0.0000 O   0  0  0  0  0  0  0  0  0  0  0  0
   -0.1750   -2.2375    0.0000 C   0  0  0  0  0  0  0  0  0  0  0  0
    0.6292    0.8750    0.0000 C   0  0  0  0  0  0  0  0  0  0  0  0
   -0.5208   -0.7292    0.0000 C   0  0  0  0  0  0  0  0  0  0  0  0
    0.6542   -0.7292    0.0000 C   0  0  0  0  0  0  0  0  0  0  0  0
   -0.4083    0.8750    0.0000 C   0  0  0  0  0  0  0  0  0  0  0  0
    0.9667   -2.2375    0.0000 C   0  0  0  0  0  0  0  0  0  0  0  0
  2  3  1  0
  3  7  1  0
  4  1  1  0
  5  3  1  0
  6  1  1  0
  7 10  1  0
  8  4  1  0
  9  8  1  0
 10 13  1  0
 11 16  1  0
 12 17  1  0
 13 18  1  0
 14  9  1  0
 15 12  1  0
 16 15  1  0
 17 14  1  0
 18 11  1  0
  4  6  1  0
  5  2  1  0
M  END
> <chembl_id>
CHEMBL460287

> <chembl_pref_name>
ETOGLUCID

$$$$

     RDKit          2D

 22 25  0  0  0  0  0  0  0  0999 V2000
   -0.3500   -1.8250    0.0000 C   0  0  0  0  0  0  0  0  0  0  0  0
   -0.9958   -2.1250    0.0000 C   0  0  0  0  0  0  0  0  0  0  0  0
    0.2875   -2.1417    0.0000 C   0  0  0  0  0  0  0  0  0  0  0  0
   -0.3458   -1.1167    0.0000 C   0  0  0  0  0  0  0  0  0  0  0  0
   -0.3250    0.2958    0.0000 N   0  0  0  0  0  0  0  0  0  0  0  0
   -1.5083   -1.6292    0.0000 N   0  0  0  0  0  0  0  0  0  0  0  0
   -1.1583   -2.8167    0.0000 C   0  0  0  0  0  0  0  0  0  0  0  0
    0.4417   -2.8375    0.0000 C   0  0  0  0  0  0  0  0  0  0  0  0
    0.2750   -0.7750    0.0000 C   0  0  0  0  0  0  0  0  0  0  0  0
   -0.9583   -0.7625    0.0000 C   0  0  0  0  0  0  0  0  0  0  0  0
   -0.0083   -3.3875    0.0000 C   0  0  0  0  0  0  0  0  0  0  0  0
   -0.7208   -3.3792    0.0000 C   0  0  0  0  0  0  0  0  0  0  0  0
   -0.9458   -0.0542    0.0000 C   0  0  0  0  0  0  0  0  0  0  0  0
    0.2792   -0.0667    0.0000 C   0  0  0  0  0  0  0  0  0  0  0  0
    0.8042   -1.6542    0.0000 C   0  0  0  0  0  0  0  0  0  0  0  0
   -0.3208    1.0083    0.0000 C   0  0  0  0  0  0  0  0  0  0  0  0
   -2.1958   -1.8375    0.0000 C   0  0  0  0  0  0  0  0  0  0  0  0
   -1.8458   -3.0250    0.0000 C   0  0  0  0  0  0  0  0  0  0  0  0
    1.1250   -3.0500    0.0000 C   0  0  0  0  0  0  0  0  0  0  0  0
   -2.3583   -2.5375    0.0000 C   0  0  0  0  0  0  0  0  0  0  0  0
    1.4875   -1.8667    0.0000 C   0  0  0  0  0  0  0  0  0  0  0  0
    1.6500   -2.5667    0.0000 C   0  0  0  0  0  0  0  0  0  0  0  0
  2  1  1  0
  3  1  1  0
  4  1  2  0
  5 13  1  0
  6  2  1  0
  7  2  2  0
  8  3  2  0
  9  4  1  0
 10  4  1  0
 11  8  1  0
 12  7  1  0
 13 10  1  0
 14  9  1  0
 15  3  1  0
 16  5  1  0
 17  6  2  0
 18  7  1  0
 19  8  1  0
 20 18  2  0
 21 15  2  0
 22 19  2  0
 14  5  1  0
 12 11  1  0
 21 22  1  0
 17 20  1  0
M  END
> <chembl_id>
CHEMBL946

> <chembl_pref_name>
AZATADINE

$$$$

     RDKit          2D

 23 25  0  0  0  0  0  0  0  0999 V2000
    8.5603   -2.8735    0.0000 C   0  0  0  0  0  0  0  0  0  0  0  0
    9.6382   -3.6870    0.0000 C   0  0  0  0  0  0  0  0  0  0  0  0
    9.1187   -3.2503    0.0000 C   0  0  0  0  0  0  0  0  0  0  0  0
    8.1313   -3.2503    0.0000 C   0  0  0  0  0  0  0  0  0  0  0  0
    7.9873   -2.4257    0.0000 N   0  0  0  0  0  0  0  0  0  0  0  0
    9.5003   -2.8581    0.0000 C   0  0  0  0  0  0  0  0  0  0  0  0
    7.6036   -3.9744    0.0000 C   0  0  0  0  0  0  0  0  0  0  0  0
    8.2314   -3.5940    0.0000 C   0  0  0  0  0  0  0  0  0  0  0  0
    7.9000   -1.4332    0.0000 C   0  0  0  0  0  0  0  0  0  0  0  0
    7.3026   -3.2503    0.0000 H   0  0  0  0  0  0  0  0  0  0  0  0
    8.9624   -2.1560    0.0000 H   0  0  0  0  0  0  0  0  0  0  0  0
    9.8470   -4.4770    0.0000 O   0  0  0  0  0  0  0  0  0  0  0  0
   10.5583   -4.8873    0.0000 C   0  0  0  0  0  0  0  0  0  0  0  0
   11.2747   -4.4787    0.0000 C   0  0  0  0  0  0  0  0  0  0  0  0
   10.5564   -5.7125    0.0000 O   0  0  0  0  0  0  0  0  0  0  0  0
   11.9890   -4.8908    0.0000 C   0  0  0  0  0  0  0  0  0  0  0  0
   11.2767   -3.6533    0.0000 O   0  0  0  0  0  0  0  0  0  0  0  0
   11.9892   -5.7158    0.0000 C   0  0  0  0  0  0  0  0  0  0  0  0
   12.7038   -6.1281    0.0000 C   0  0  0  0  0  0  0  0  0  0  0  0
   13.4182   -5.7154    0.0000 C   0  0  0  0  0  0  0  0  0  0  0  0
   13.4180   -4.8903    0.0000 C   0  0  0  0  0  0  0  0  0  0  0  0
   12.7034   -4.4781    0.0000 C   0  0  0  0  0  0  0  0  0  0  0  0
    7.1904   -2.2122    0.0000 C   0  0  0  0  0  0  0  0  0  0  0  0
  2  3  1  0
  4 10  1  1
  3  4  1  0
  1 11  1  6
  4  5  1  0
  2 12  1  6
  5  1  1  0
 12 13  1  0
  1  6  1  0
 13 14  1  0
  6  2  1  0
 13 15  2  0
  4  7  1  0
 14 16  1  0
  1  8  1  0
 14 17  1  0
  7  8  1  0
  5  9  1  0
 16 18  1  0
 16 22  2  0
 18 19  2  0
 19 20  1  0
 20 21  2  0
 21 22  1  0
  5 23  1  0
M  CHG  1   5   1
M  END
> <chembl_id>
CHEMBL1201235

> <chembl_pref_name>
METHYLHOMATROPINE

$$$$

     RDKit          2D

 21 23  0  0  0  0  0  0  0  0999 V2000
   -0.6833   -0.1917    0.0000 N   0  0  0  0  0  0  0  0  0  0  0  0
   -0.6833   -3.1042    0.0000 S   0  0  0  0  0  0  0  0  0  0  0  0
    0.5417   -0.9167    0.0000 C   0  0  0  0  0  0  0  0  0  0  0  0
   -1.9083   -0.9167    0.0000 C   0  0  0  0  0  0  0  0  0  0  0  0
   -1.9083   -2.3917    0.0000 C   0  0  0  0  0  0  0  0  0  0  0  0
    0.5417   -2.3917    0.0000 C   0  0  0  0  0  0  0  0  0  0  0  0
   -0.6833    1.2333    0.0000 C   0  0  0  0  0  0  0  0  0  0  0  0
    0.5417    1.9458    0.0000 C   0  0  0  0  0  0  0  0  0  0  0  0
    1.8292    1.2458    0.0000 C   0  0  0  0  0  0  0  0  0  0  0  0
    3.0417    1.9958    0.0000 N   0  0  0  0  0  0  0  0  0  0  0  0
    1.8125   -0.1917    0.0000 C   0  0  0  0  0  0  0  0  0  0  0  0
   -3.1125   -0.1917    0.0000 C   0  0  0  0  0  0  0  0  0  0  0  0
   -3.1125   -3.1042    0.0000 C   0  0  0  0  0  0  0  0  0  0  0  0
    1.8125   -3.1042    0.0000 C   0  0  0  0  0  0  0  0  0  0  0  0
    0.5375    3.3750    0.0000 C   0  0  0  0  0  0  0  0  0  0  0  0
    3.0542    3.3708    0.0000 C   0  0  0  0  0  0  0  0  0  0  0  0
    4.3125    1.2958    0.0000 C   0  0  0  0  0  0  0  0  0  0  0  0
    3.0125   -0.9167    0.0000 C   0  0  0  0  0  0  0  0  0  0  0  0
   -4.3208   -0.8667    0.0000 C   0  0  0  0  0  0  0  0  0  0  0  0
    3.0125   -2.3917    0.0000 C   0  0  0  0  0  0  0  0  0  0  0  0
   -4.3208   -2.4375    0.0000 C   0  0  0  0  0  0  0  0  0  0  0  0
  2  5  1  0
  3  1  1  0
  4  1  1  0
  5  4  2  0
  6  3  2  0
  7  1  1  0
  8  7  1  0
  9  8  1  0
 10  9  1  0
 11  3  1  0
 12  4  1  0
 13  5  1  0
 14  6  1  0
 15  8  1  0
 16 10  1  0
 17 10  1  0
 18 11  2  0
 19 12  2  0
 20 18  1  0
 21 19  1  0
  6  2  1  0
 13 21  2  0
 14 20  2  0
M  END
> <chembl_id>
CHEMBL829

> <chembl_pref_name>
METHYLPROMAZINE

$$$$

     RDKit          2D

 23 26  0  0  0  0  0  0  0  0999 V2000
   -0.1549  -16.0303    0.0000 C   0  0  0  0  0  0  0  0  0  0  0  0
   -0.9029  -16.3782    0.0000 C   0  0  0  0  0  0  0  0  0  0  0  0
   -1.6429  -16.0086    0.0000 C   0  0  0  0  0  0  0  0  0  0  0  0
    0.0383  -15.2261    0.0000 C   0  0  0  0  0  0  0  0  0  0  0  0
   -1.8202  -15.2044    0.0000 O   0  0  0  0  0  0  0  0  0  0  0  0
   -0.4695  -14.5715    0.0000 C   0  0  0  0  0  0  0  0  0  0  0  0
   -1.2977  -14.5650    0.0000 C   0  0  0  0  0  0  0  0  0  0  0  0
    0.5575  -16.4461    0.0000 C   0  0  0  0  0  0  0  0  0  0  0  0
    0.5575  -17.2732    0.0000 C   0  0  0  0  0  0  0  0  0  0  0  0
   -0.1549  -17.6845    0.0000 C   0  0  0  0  0  0  0  0  0  0  0  0
   -0.8683  -17.2732    0.0000 C   0  0  0  0  0  0  0  0  0  0  0  0
   -1.5788  -17.6875    0.0000 C   0  0  0  0  0  0  0  0  0  0  0  0
   -2.2974  -17.2793    0.0000 C   0  0  0  0  0  0  0  0  0  0  0  0
   -2.3010  -16.4522    0.0000 O   0  0  0  0  0  0  0  0  0  0  0  0
    1.2709  -16.0366    0.0000 C   0  0  0  0  0  0  0  0  0  0  0  0
    0.5621  -15.6191    0.0000 H   0  0  0  0  0  0  0  0  0  0  0  0
   -0.8637  -18.0912    0.0000 H   0  0  0  0  0  0  0  0  0  0  0  0
   -1.5742  -18.5100    0.0000 C   0  0  0  0  0  0  0  0  0  0  0  0
   -3.0074  -17.6946    0.0000 O   0  0  0  0  0  0  0  0  0  0  0  0
   -1.6360  -16.8299    0.0000 H   0  0  0  0  0  0  0  0  0  0  0  0
   -1.6473  -13.8205    0.0000 C   0  0  0  0  0  0  0  0  0  0  0  0
   -0.5804  -14.9701    0.0000 O   0  0  0  0  0  0  0  0  0  0  0  0
   -1.1607  -15.5505    0.0000 O   0  0  0  0  0  0  0  0  0  0  0  0
  2  3  1  0
  4  6  1  0
  1  2  1  0
  5  7  1  0
 11 12  1  0
 12 13  1  0
 13 14  1  0
 14  3  1  0
  6  7  1  0
  8 15  1  6
  8  9  1  0
  1 16  1  6
  1  4  1  0
 11 17  1  6
 12 18  1  1
  3  5  1  0
 13 19  1  1
  8  1  1  0
  3 20  1  1
  9 10  1  0
  7 21  1  1
 10 11  1  0
  7 22  1  0
  2 11  1  0
 22 23  1  0
  2 23  1  6
M  END
> <chembl_id>
CHEMBL252518

> <chembl_pref_name>
ARTENIMOL

$$$$

     RDKit          2D

  3  0  0  0  0  0  0  0  0  0999 V2000
    7.5667   -4.6292    0.0000 Zn  0  0  0  0  0 15  0  0  0  0  0  0
    8.7042   -4.6417    0.0000 Cl  0  0  0  0  0  0  0  0  0  0  0  0
    6.6417   -4.6417    0.0000 Cl  0  0  0  0  0  0  0  0  0  0  0  0
M  CHG  3   1   2   2  -1   3  -1
M  END
> <chembl_id>
CHEMBL1200679

> <chembl_pref_name>
ZINC CHLORIDE

$$$$

     RDKit          2D

 12 11  0  0  1  0  0  0  0  0999 V2000
    4.9750   -4.6542    0.0000 C   0  0  0  0  0  0  0  0  0  0  0  0
    4.3792   -4.9792    0.0000 C   0  0  0  0  0  0  0  0  0  0  0  0
    5.6000   -4.9792    0.0000 C   0  0  0  0  0  0  0  0  0  0  0  0
    3.7542   -4.6625    0.0000 C   0  0  0  0  0  0  0  0  0  0  0  0
    4.9667   -3.9417    0.0000 O   0  0  0  0  0  0  0  0  0  0  0  0
    4.3875   -5.7000    0.0000 O   0  0  0  0  0  0  0  0  0  0  0  0
    5.6042   -5.6917    0.0000 O   0  0  0  0  0  0  0  0  0  0  0  0
    3.7417   -3.9417    0.0000 O   0  0  0  0  0  0  0  0  0  0  0  0
    6.8542   -4.9917    0.0000 O   0  0  0  0  0  0  0  0  0  0  0  0
    2.5042   -4.6500    0.0000 O   0  0  0  0  0  0  0  0  0  0  0  0
    3.1375   -4.9917    0.0000 C   0  0  0  0  0  0  0  0  0  0  0  0
    6.2167   -4.6417    0.0000 C   0  0  0  0  0  0  0  0  0  0  0  0
  2  1  1  0
  3  1  1  0
  4  2  1  0
  1  5  1  6
  2  6  1  6
  3  7  1  1
  4  8  1  1
  9 12  1  0
 10 11  1  0
 11  4  1  0
 12  3  1  0
M  END
> <chembl_id>
CHEMBL689

> <chembl_pref_name>
MANNITOL

$$$$

     RDKit          2D

 16 17  0  0  0  0  0  0  0  0999 V2000
   -2.6208    0.2458    0.0000 C   0  0  0  0  0  0  0  0  0  0  0  0
   -2.0708   -1.0167    0.0000 N   0  0  0  0  0  0  0  0  0  0  0  0
   -1.9250    1.4458    0.0000 N   0  0  0  0  0  0  0  0  0  0  0  0
   -4.0833    1.8833    0.0000 N   0  0  0  0  0  0  0  0  0  0  0  0
   -3.9458    0.5250    0.0000 C   0  0  0  0  0  0  0  0  0  0  0  0
   -2.8458    2.4583    0.0000 C   0  0  0  0  0  0  0  0  0  0  0  0
   -0.6958   -1.1917    0.0000 O   0  0  0  0  0  0  0  0  0  0  0  0
    1.4625    0.2458    0.0000 N   0  0  0  0  0  0  0  0  0  0  0  0
   -2.8750   -2.1167    0.0000 O   0  0  0  0  0  0  0  0  0  0  0  0
   -0.5750    1.4458    0.0000 C   0  0  0  0  0  0  0  0  0  0  0  0
    4.1917    0.2458    0.0000 O   0  0  0  0  0  0  0  0  0  0  0  0
    0.1125    0.2458    0.0000 C   0  0  0  0  0  0  0  0  0  0  0  0
    2.1542   -0.9375    0.0000 C   0  0  0  0  0  0  0  0  0  0  0  0
    2.1542    1.4458    0.0000 C   0  0  0  0  0  0  0  0  0  0  0  0
    3.5292   -0.9375    0.0000 C   0  0  0  0  0  0  0  0  0  0  0  0
    3.5292    1.4458    0.0000 C   0  0  0  0  0  0  0  0  0  0  0  0
  2  1  1  0
  3  1  1  0
  4  5  1  0
  5  1  2  0
  6  3  1  0
  7  2  1  0
  8 12  1  0
  9  2  2  0
 10  3  1  0
 11 16  1  0
 12 10  1  0
 13  8  1  0
 14  8  1  0
 15 13  1  0
 16 14  1  0
  6  4  2  0
 15 11  1  0
M  CHG  2   2   1   7  -1
M  END
> <chembl_id>
CHEMBL435966

> <chembl_pref_name>
NIMORAZOLE

$$$$

     RDKit          2D

  9  8  0  0  0  0  0  0  0  0999 V2000
    1.9000   -3.8875    0.0000 C   0  0  0  0  0  0  0  0  0  0  0  0
    1.9000   -3.1792    0.0000 O   0  0  0  0  0  0  0  0  0  0  0  0
    3.7167   -5.0000    0.0000 O   0  0  0  0  0  0  0  0  0  0  0  0
    3.7375   -4.2875    0.0000 C   0  0  0  0  0  0  0  0  0  0  0  0
    2.5042   -4.2542    0.0000 C   0  0  0  0  0  0  0  0  0  0  0  0
    1.2750   -4.2375    0.0000 O   0  0  0  0  0  0  0  0  0  0  0  0
    3.1375   -3.9250    0.0000 C   0  0  0  0  0  0  0  0  0  0  0  0
    4.9750   -4.3292    0.0000 N   0  0  0  0  0  0  0  0  0  0  0  0
    4.3625   -3.9542    0.0000 C   0  0  0  0  0  0  0  0  0  0  0  0
  2  1  2  0
  3  4  2  0
  4  7  1  0
  5  1  1  0
  6  1  1  0
  7  5  1  0
  8  9  1  0
  9  4  1  0
M  END
> <chembl_id>
CHEMBL601

> <chembl_pref_name>
AMINOLEVULINIC ACID

$$$$

     RDKit          2D

 20 21  0  0  0  0  0  0  0  0999 V2000
    9.5875   -1.8792    0.0000 C   0  0  0  0  0  0  0  0  0  0  0  0
    9.5792   -1.1792    0.0000 C   0  0  0  0  0  0  0  0  0  0  0  0
    8.9625   -2.2292    0.0000 N   0  0  0  0  0  0  0  0  0  0  0  0
    8.3542   -1.1542    0.0000 N   0  0  0  0  0  0  0  0  0  0  0  0
    8.3542   -1.8667    0.0000 C   0  0  0  0  0  0  0  0  0  0  0  0
    8.9667   -0.8125    0.0000 C   0  0  0  0  0  0  0  0  0  0  0  0
   10.2542   -2.1167    0.0000 N   0  0  0  0  0  0  0  0  0  0  0  0
   10.2625   -0.9625    0.0000 N   0  0  0  0  0  0  0  0  0  0  0  0
   10.6750   -1.5417    0.0000 C   0  0  0  0  0  0  0  0  0  0  0  0
    7.7292   -2.2250    0.0000 O   0  0  0  0  0  0  0  0  0  0  0  0
    8.9792   -0.0958    0.0000 O   0  0  0  0  0  0  0  0  0  0  0  0
    7.7417   -0.7917    0.0000 C   0  0  0  0  0  0  0  0  0  0  0  0
    8.9542   -2.9417    0.0000 C   0  0  0  0  0  0  0  0  0  0  0  0
    5.3042   -0.0417    0.0000 O   0  0  0  0  0  0  0  0  0  0  0  0
    5.2917   -0.7417    0.0000 C   0  0  0  0  0  0  0  0  0  0  0  0
   10.4917   -0.2875    0.0000 C   0  0  0  0  0  0  0  0  0  0  0  0
    5.9000   -1.1125    0.0000 C   0  0  0  0  0  0  0  0  0  0  0  0
    4.6792   -1.0917    0.0000 C   0  0  0  0  0  0  0  0  0  0  0  0
    7.1375   -1.1417    0.0000 C   0  0  0  0  0  0  0  0  0  0  0  0
    6.5292   -0.7792    0.0000 C   0  0  0  0  0  0  0  0  0  0  0  0
  2  1  2  0
  3  1  1  0
  4  5  1  0
  5  3  1  0
  6  2  1  0
  7  1  1  0
  8  2  1  0
  9  7  2  0
 10  5  2  0
 11  6  2  0
 12  4  1  0
 13  3  1  0
 14 15  2  0
 15 17  1  0
 16  8  1  0
 17 20  1  0
 18 15  1  0
 19 12  1  0
 20 19  1  0
  9  8  1  0
  4  6  1  0
M  END
> <chembl_id>
CHEMBL628

> <chembl_pref_name>
PENTOXIFYLLINE

$$$$

     RDKit          2D

 19 20  0  0  0  0  0  0  0  0999 V2000
    1.2990   -0.7500    0.0000 C   0  0  0  0  0  0  0  0  0  0  0  0
    0.0000   -1.5000    0.0000 C   0  0  0  0  0  0  0  0  0  0  0  0
   -1.2990   -0.7500    0.0000 C   0  0  0  0  0  0  0  0  0  0  0  0
   -1.2990    0.7500    0.0000 C   0  0  0  0  0  0  0  0  0  0  0  0
    0.0000    1.5000    0.0000 C   0  0  0  0  0  0  0  0  0  0  0  0
    1.2990    0.7500    0.0000 C   0  0  0  0  0  0  0  0  0  0  0  0
   -2.6010    1.4966    0.0000 C   0  0  0  0  0  0  0  0  0  0  0  0
   -2.6062    2.9975    0.0000 C   0  0  0  0  0  0  0  0  0  0  0  0
   -3.9077    3.7433    0.0000 C   0  0  0  0  0  0  0  0  0  0  0  0
   -3.9128    5.2433    0.0000 C   0  0  0  0  0  0  0  0  0  0  0  0
   -2.6163    5.9977    0.0000 C   0  0  0  0  0  0  0  0  0  0  0  0
   -1.3147    5.2521    0.0000 C   0  0  0  0  0  0  0  0  0  0  0  0
   -1.3096    3.7521    0.0000 C   0  0  0  0  0  0  0  0  0  0  0  0
   -3.8999    0.7447    0.0000 S   0  0  0  0  0  0  0  0  0  0  0  0
   -5.2010    1.4929    0.0000 C   0  0  0  0  0  0  0  0  0  0  0  0
   -3.8982   -0.4553    0.0000 O   0  0  0  0  0  0  0  0  0  0  0  0
   -6.4999    0.7410    0.0000 C   0  0  0  0  0  0  0  0  0  0  0  0
   -6.4981   -0.4590    0.0000 N   0  0  0  0  0  0  0  0  0  0  0  0
   -7.5402    1.3391    0.0000 O   0  0  0  0  0  0  0  0  0  0  0  0
  4  5  1  0
  9 10  1  0
  2  3  1  0
 10 11  2  0
  5  6  2  0
 11 12  1  0
  6  1  1  0
 12 13  2  0
 13  8  1  0
  1  2  2  0
  7 14  1  0
  4  7  1  0
 14 15  1  0
  3  4  2  0
 14 16  1  0
  7  8  1  0
 15 17  1  0
 17 18  1  0
  8  9  2  0
 17 19  2  0
M  CHG  2  14   1  16  -1
M  END
> <chembl_id>
CHEMBL1373

> <chembl_pref_name>
MODAFINIL

$$$$

     RDKit          2D

 19 19  0  0  0  0  0  0  0  0999 V2000
    3.1861   -1.1167    0.0000 C   0  0  0  0  0  0  0  0  0  0  0  0
    3.1849   -1.8274    0.0000 C   0  0  0  0  0  0  0  0  0  0  0  0
    3.7998   -2.1819    0.0000 C   0  0  0  0  0  0  0  0  0  0  0  0
    4.4120   -1.8269    0.0000 C   0  0  0  0  0  0  0  0  0  0  0  0
    4.4092   -1.1130    0.0000 C   0  0  0  0  0  0  0  0  0  0  0  0
    3.7980   -0.7622    0.0000 C   0  0  0  0  0  0  0  0  0  0  0  0
    5.0214   -0.7568    0.0000 C   0  0  0  0  0  0  0  0  0  0  0  0
    5.6360   -1.1090    0.0000 C   0  0  0  0  0  0  0  0  0  0  0  0
    6.2483   -0.7528    0.0000 N   0  0  0  0  0  0  0  0  0  0  0  0
    6.8629   -1.1050    0.0000 C   0  0  0  0  0  0  0  0  0  0  0  0
    7.4752   -0.7488    0.0000 C   0  0  0  0  0  0  0  0  0  0  0  0
    6.8652   -1.8133    0.0000 O   0  0  0  0  0  0  0  0  0  0  0  0
    5.6384   -1.8173    0.0000 C   0  0  0  0  0  0  0  0  0  0  0  0
    7.4728   -0.0405    0.0000 N   0  0  0  0  0  0  0  0  0  0  0  0
    8.0898   -1.1009    0.0000 C   0  0  0  0  0  0  0  0  0  0  0  0
    8.7020   -0.7448    0.0000 C   0  0  0  0  0  0  0  0  0  0  0  0
    9.3166   -1.0969    0.0000 C   0  0  0  0  0  0  0  0  0  0  0  0
    9.9289   -0.7407    0.0000 C   0  0  0  0  0  0  0  0  0  0  0  0
   10.5435   -1.0929    0.0000 N   0  0  0  0  0  0  0  0  0  0  0  0
  2  3  1  0
 17 18  1  0
  7  8  1  0
 18 19  1  0
  8  9  1  0
  3  4  2  0
  9 10  1  0
 10 11  1  0
  4  5  1  0
 10 12  2  0
  1  2  2  0
  8 13  1  1
  5  6  2  0
 11 14  1  1
  6  1  1  0
 11 15  1  0
 15 16  1  0
  5  7  1  0
 16 17  1  0
M  END
> <chembl_id>
CHEMBL1201222

> <chembl_pref_name>
LISDEXAMFETAMINE

$$$$

     RDKit          2D

 20 19  0  0  0  0  0  0  0  0999 V2000
    2.7000   -2.6000    0.0000 C   0  0  0  0  0  0  0  0  0  0  0  0
    2.4542   -3.3292    0.0000 O   0  0  0  0  0  0  0  0  0  0  0  0
   -3.7708   -1.4917    0.0000 C   0  0  0  0  0  0  0  0  0  0  0  0
   -3.2750    0.1625    0.0000 C   0  0  0  0  0  0  0  0  0  0  0  0
   -2.0208   -3.5375    0.0000 C   0  0  0  0  0  0  0  0  0  0  0  0
   -3.4250   -2.5042    0.0000 C   0  0  0  0  0  0  0  0  0  0  0  0
   -0.9458   -3.5417    0.0000 C   0  0  0  0  0  0  0  0  0  0  0  0
   -2.4333    0.8125    0.0000 C   0  0  0  0  0  0  0  0  0  0  0  0
    3.6542   -2.6000    0.0000 O   0  0  0  0  0  0  0  0  0  0  0  0
   -2.9333   -0.8375    0.0000 C   0  0  0  0  0  0  0  0  0  0  0  0
   -2.3625   -2.5292    0.0000 C   0  0  0  0  0  0  0  0  0  0  0  0
    1.9042   -1.5667    0.0000 C   0  0  0  0  0  0  0  0  0  0  0  0
   -0.5750   -2.5500    0.0000 C   0  0  0  0  0  0  0  0  0  0  0  0
   -1.5333    0.2458    0.0000 C   0  0  0  0  0  0  0  0  0  0  0  0
    0.8542   -1.5542    0.0000 C   0  0  0  0  0  0  0  0  0  0  0  0
    0.4875   -2.5542    0.0000 C   0  0  0  0  0  0  0  0  0  0  0  0
   -0.6833    0.9083    0.0000 C   0  0  0  0  0  0  0  0  0  0  0  0
   -0.2000    2.5833    0.0000 C   0  0  0  0  0  0  0  0  0  0  0  0
   -1.0333    1.9208    0.0000 C   0  0  0  0  0  0  0  0  0  0  0  0
   -0.5333    3.5958    0.0000 C   0  0  0  0  0  0  0  0  0  0  0  0
  2  1  2  0
  3  6  2  0
  4 10  1  0
  5  7  2  0
  6 11  1  0
  7 13  1  0
  8  4  2  0
  9  1  1  0
 10  3  1  0
 11  5  1  0
 12  1  1  0
 13 16  1  0
 14  8  1  0
 15 12  1  0
 16 15  1  0
 17 14  1  0
 18 19  1  0
 19 17  1  0
 20 18  1  0
M  END
> <chembl_id>
CHEMBL464982

> <chembl_pref_name>
GAMOLENIC ACID

$$$$

     RDKit          2D

 14 16  0  0  0  0  0  0  0  0999 V2000
    4.8167   -4.8417    0.0000 C   0  0  0  0  0  0  0  0  0  0  0  0
    5.2292   -5.4125    0.0000 N   0  0  0  0  0  0  0  0  0  0  0  0
    4.1042   -4.8417    0.0000 C   0  0  0  0  0  0  0  0  0  0  0  0
    5.2292   -4.2667    0.0000 N   0  0  0  0  0  0  0  0  0  0  0  0
    3.6792   -4.2667    0.0000 N   0  0  0  0  0  0  0  0  0  0  0  0
    5.9042   -5.1917    0.0000 C   0  0  0  0  0  0  0  0  0  0  0  0
    5.9042   -4.4917    0.0000 C   0  0  0  0  0  0  0  0  0  0  0  0
    3.0042   -5.1917    0.0000 S   0  0  0  0  0  0  0  0  0  0  0  0
    3.0042   -4.4917    0.0000 C   0  0  0  0  0  0  0  0  0  0  0  0
    3.6792   -5.4125    0.0000 C   0  0  0  0  0  0  0  0  0  0  0  0
    6.5250   -5.5542    0.0000 C   0  0  0  0  0  0  0  0  0  0  0  0
    6.5250   -4.1292    0.0000 C   0  0  0  0  0  0  0  0  0  0  0  0
    7.1417   -4.4917    0.0000 C   0  0  0  0  0  0  0  0  0  0  0  0
    7.1417   -5.1917    0.0000 C   0  0  0  0  0  0  0  0  0  0  0  0
  2  1  2  0
  3  1  1  0
  4  1  1  0
  5  3  1  0
  6  2  1  0
  7  4  1  0
  8 10  1  0
  9  5  2  0
 10  3  2  0
 11  6  1  0
 12  7  1  0
 13 12  2  0
 14 11  2  0
  6  7  2  0
  9  8  1  0
 14 13  1  0
M  END
> <chembl_id>
CHEMBL625

> <chembl_pref_name>
THIABENDAZOLE

$$$$

     RDKit          2D

 15 14  0  0  0  0  0  0  0  0999 V2000
    2.1792   -1.2875    0.0000 Cl  0  0  0  0  0  0  0  0  0  0  0  0
    0.2042   -0.5875    0.0000 N   0  0  0  0  0  0  0  0  0  0  0  0
    0.8167   -0.2292    0.0000 C   0  0  0  0  0  0  0  0  0  0  0  0
   -0.4083   -0.2417    0.0000 C   0  0  0  0  0  0  0  0  0  0  0  0
    0.8042    0.4750    0.0000 O   0  0  0  0  0  0  0  0  0  0  0  0
   -0.4125    0.4708    0.0000 C   0  0  0  0  0  0  0  0  0  0  0  0
   -1.0208   -0.6042    0.0000 C   0  0  0  0  0  0  0  0  0  0  0  0
    1.4292   -0.5750    0.0000 C   0  0  0  0  0  0  0  0  0  0  0  0
    1.4417   -1.2792    0.0000 N   0  0  0  0  0  0  0  0  0  0  0  0
   -1.6458    0.4583    0.0000 C   0  0  0  0  0  0  0  0  0  0  0  0
   -1.6375   -0.2542    0.0000 C   0  0  0  0  0  0  0  0  0  0  0  0
   -1.0333    0.8208    0.0000 C   0  0  0  0  0  0  0  0  0  0  0  0
    0.1917    0.8250    0.0000 C   0  0  0  0  0  0  0  0  0  0  0  0
   -1.0083   -1.3042    0.0000 C   0  0  0  0  0  0  0  0  0  0  0  0
    2.0417   -0.2167    0.0000 C   0  0  0  0  0  0  0  0  0  0  0  0
  3  2  1  0
  4  2  1  0
  5  3  2  0
  6  4  1  0
  7  4  2  0
  8  3  1  0
  9  8  1  0
 10 11  2  0
 11  7  1  0
 12  6  2  0
 13  6  1  0
 14  7  1  0
 15  8  1  0
 10 12  1  0
M  END
> <chembl_id>
CHEMBL1200773

> <chembl_pref_name>
TOCAINIDE HYDROCHLORIDE

$$$$

     RDKit          2D

 19 19  0  0  0  0  0  0  0  0999 V2000
   -5.1903    0.3921    0.0000 O   0  0  0  0  0  0  0  0  0  0  0  0
   -3.7614    1.2171    0.0000 O   0  0  0  0  0  0  0  0  0  0  0  0
   -4.4759   -0.0204    0.0000 N   0  0  0  0  0  0  0  0  0  0  0  0
   -3.7614    0.3921    0.0000 C   0  0  0  0  0  0  0  0  0  0  0  0
   -3.0469   -0.0204    0.0000 C   0  0  0  0  0  0  0  0  0  0  0  0
   -2.3324    0.3921    0.0000 C   0  0  0  0  0  0  0  0  0  0  0  0
   -1.6180   -0.0204    0.0000 C   0  0  0  0  0  0  0  0  0  0  0  0
   -0.9035    0.3921    0.0000 C   0  0  0  0  0  0  0  0  0  0  0  0
   -0.1890   -0.0204    0.0000 C   0  0  0  0  0  0  0  0  0  0  0  0
    0.5254    0.3921    0.0000 C   0  0  0  0  0  0  0  0  0  0  0  0
    1.2399   -0.0204    0.0000 C   0  0  0  0  0  0  0  0  0  0  0  0
    1.2399   -0.8454    0.0000 O   0  0  0  0  0  0  0  0  0  0  0  0
    1.9544    0.3921    0.0000 N   0  0  0  0  0  0  0  0  0  0  0  0
    2.6689   -0.0204    0.0000 C   0  0  0  0  0  0  0  0  0  0  0  0
    3.3833    0.3921    0.0000 C   0  0  0  0  0  0  0  0  0  0  0  0
    4.0978   -0.0204    0.0000 C   0  0  0  0  0  0  0  0  0  0  0  0
    4.0978   -0.8454    0.0000 C   0  0  0  0  0  0  0  0  0  0  0  0
    3.3833   -1.2579    0.0000 C   0  0  0  0  0  0  0  0  0  0  0  0
    2.6689   -0.8454    0.0000 C   0  0  0  0  0  0  0  0  0  0  0  0
  3  1  1  0
  4  2  2  0
  4  3  1  0
  4  5  1  0
  5  6  1  0
  6  7  1  0
  7  8  1  0
  8  9  1  0
  9 10  1  0
 10 11  1  0
 11 12  2  0
 11 13  1  0
 14 13  1  0
 15 14  2  0
 19 14  1  0
 15 16  1  0
 16 17  2  0
 17 18  1  0
 18 19  2  0
M  END
> <chembl_id>
CHEMBL98

> <chembl_pref_name>
VORINOSTAT

$$$$

     RDKit          2D

  9  9  0  0  0  0  0  0  0  0999 V2000
   -1.4708    2.2458    0.0000 N   0  0  0  0  0  0  0  0  0  0  0  0
   -1.0208    0.8458    0.0000 C   0  0  0  0  0  0  0  0  0  0  0  0
    0.4042    0.8458    0.0000 C   0  0  0  0  0  0  0  0  0  0  0  0
   -0.3083    3.0458    0.0000 C   0  0  0  0  0  0  0  0  0  0  0  0
    0.8542    2.2458    0.0000 S   0  0  0  0  0  0  0  0  0  0  0  0
    1.2250   -0.3292    0.0000 C   0  0  0  0  0  0  0  0  0  0  0  0
    1.4417   -2.7792    0.0000 Cl  0  0  0  0  0  0  0  0  0  0  0  0
   -1.8458   -0.3292    0.0000 C   0  0  0  0  0  0  0  0  0  0  0  0
    0.6292   -1.6167    0.0000 C   0  0  0  0  0  0  0  0  0  0  0  0
  2  1  1  0
  3  2  2  0
  4  1  2  0
  5  4  1  0
  6  3  1  0
  7  9  1  0
  8  2  1  0
  9  6  1  0
  3  5  1  0
M  END
> <chembl_id>
CHEMBL315795

> <chembl_pref_name>
CLOMETHIAZOLE

$$$$

     RDKit          2D

 11  6  0  0  0  0  0  0  0  0999 V2000
    4.3607   -8.8098    0.0000 O   0  0  0  0  0  0  0  0  0  0  0  0
   -0.6348   -6.6148    0.0000 C   0  0  0  0  0  0  0  0  0  0  0  0
   -0.2277   -5.9024    0.0000 O   0  0  0  0  0  0  0  0  0  0  0  0
   -1.4634   -6.6148    0.0000 O   0  0  0  0  0  0  0  0  0  0  0  0
   -0.2277   -7.3320    0.0000 C   0  0  0  0  0  0  0  0  0  0  0  0
    2.1516   -6.6148    0.0000 C   0  0  0  0  0  0  0  0  0  0  0  0
    1.7349   -5.9024    0.0000 O   0  0  0  0  0  0  0  0  0  0  0  0
    2.9706   -6.6148    0.0000 O   0  0  0  0  0  0  0  0  0  0  0  0
    1.7349   -7.3320    0.0000 C   0  0  0  0  0  0  0  0  0  0  0  0
    0.4652   -6.7214    0.0000 Zn  0  0  0  0  0 15  0  0  0  0  0  0
    2.4750   -9.1634    0.0000 O   0  0  0  0  0  0  0  0  0  0  0  0
  3  2  1  0
  4  2  2  0
  5  2  1  0
  7  6  1  0
  8  6  2  0
  9  6  1  0
M  CHG  3   3  -1   7  -1  10   2
M  END
> <chembl_id>
CHEMBL3184986

> <chembl_pref_name>
ZINC ACETATE

$$$$

     RDKit          2D

 12 12  0  0  0  0  0  0  0  0999 V2000
    5.0917   -6.3000    0.0000 C   0  0  0  0  0  0  0  0  0  0  0  0
    4.5292   -5.8792    0.0000 N   0  0  0  0  0  0  0  0  0  0  0  0
    5.7125   -5.9542    0.0000 N   0  0  0  0  0  0  0  0  0  0  0  0
    4.8625   -6.9792    0.0000 C   0  0  0  0  0  0  0  0  0  0  0  0
    4.1417   -6.9667    0.0000 N   0  0  0  0  0  0  0  0  0  0  0  0
    3.9417   -6.2917    0.0000 C   0  0  0  0  0  0  0  0  0  0  0  0
    5.7125   -5.2417    0.0000 O   0  0  0  0  0  0  0  0  0  0  0  0
    6.3250   -6.3250    0.0000 O   0  0  0  0  0  0  0  0  0  0  0  0
    4.5417   -5.1750    0.0000 C   0  0  0  0  0  0  0  0  0  0  0  0
    3.2792   -6.0542    0.0000 C   0  0  0  0  0  0  0  0  0  0  0  0
    5.1750   -4.1167    0.0000 O   0  0  0  0  0  0  0  0  0  0  0  0
    5.1667   -4.8292    0.0000 C   0  0  0  0  0  0  0  0  0  0  0  0
  2  1  1  0
  3  1  1  0
  4  1  2  0
  5  4  1  0
  6  2  1  0
  7  3  1  0
  8  3  2  0
  9  2  1  0
 10  6  1  0
 11 12  1  0
 12  9  1  0
  5  6  2  0
M  CHG  2   3   1   7  -1
M  END
> <chembl_id>
CHEMBL137

> <chembl_pref_name>
METRONIDAZOLE

$$$$

     RDKit          2D

  5  3  0  0  0  0  0  0  0  0999 V2000
    4.7125   -5.5625    0.0000 K   0  0  0  0  0 15  0  0  0  0  0  0
    6.0917   -5.8625    0.0000 C   0  0  0  0  0  0  0  0  0  0  0  0
    5.4792   -5.5042    0.0000 O   0  0  0  0  0  0  0  0  0  0  0  0
    6.0750   -6.5750    0.0000 O   0  0  0  0  0  0  0  0  0  0  0  0
    6.7042   -5.5167    0.0000 C   0  0  0  0  0  0  0  0  0  0  0  0
  3  2  1  0
  4  2  2  0
  5  2  1  0
M  CHG  2   1   1   3  -1
M  END
> <chembl_id>
CHEMBL1201058

> <chembl_pref_name>
POTASSIUM ACETATE

$$$$

     RDKit          2D

 12 12  0  0  0  0  0  0  0  0999 V2000
    0.8949   -0.5095    0.0000 C   0  0  0  0  0  0  0  0  0  0  0  0
    1.6094   -0.9220    0.0000 O   0  0  0  0  0  0  0  0  0  0  0  0
    0.1804   -0.9220    0.0000 C   0  0  0  0  0  0  0  0  0  0  0  0
    0.1804   -1.7470    0.0000 N   0  0  0  0  0  0  0  0  0  0  0  0
   -0.5340   -0.5095    0.0000 C   0  0  0  0  0  0  0  0  0  0  0  0
   -1.2485   -0.9220    0.0000 O   0  0  0  0  0  0  0  0  0  0  0  0
   -0.5340    0.3155    0.0000 C   0  0  0  0  0  0  0  0  0  0  0  0
   -1.2485    0.7280    0.0000 O   0  0  0  0  0  0  0  0  0  0  0  0
    0.1804    0.7280    0.0000 C   0  0  0  0  0  0  0  0  0  0  0  0
    0.8949    0.3155    0.0000 O   0  0  0  0  0  0  0  0  0  0  0  0
    0.1804    1.5530    0.0000 C   0  0  0  0  0  0  0  0  0  0  0  0
   -0.5340    1.9655    0.0000 O   0  0  0  0  0  0  0  0  0  0  0  0
  1  2  1  0
  1  3  1  0
  1 10  1  0
  3  4  1  6
  3  5  1  0
  5  6  1  1
  5  7  1  0
  7  8  1  6
  7  9  1  0
  9 10  1  0
  9 11  1  1
 11 12  1  0
M  END
> <chembl_id>
CHEMBL493287

> <chembl_pref_name>
GLUCOSAMINE

$$$$

     RDKit          2D

 19 21  0  0  1  0  0  0  0  0999 V2000
    0.8708   -7.9042    0.0000 N   0  0  0  0  0  0  0  0  0  0  0  0
    0.2000   -7.6917    0.0000 C   0  0  0  0  0  0  0  0  0  0  0  0
    0.1958   -6.9875    0.0000 C   0  0  0  0  0  0  0  0  0  0  0  0
    0.8792   -8.8500    0.0000 C   0  0  0  0  0  0  0  0  0  0  0  0
    0.8625   -6.7667    0.0000 N   0  0  0  0  0  0  0  0  0  0  0  0
    1.2833   -7.3333    0.0000 C   0  0  0  0  0  0  0  0  0  0  0  0
   -0.3708   -8.1375    0.0000 N   0  0  0  0  0  0  0  0  0  0  0  0
    0.3042   -8.4292    0.0000 O   0  0  0  0  0  0  0  0  0  0  0  0
    0.6583   -9.5250    0.0000 C   0  0  0  0  0  0  0  0  0  0  0  0
   -0.2708   -8.8500    0.0000 C   0  0  0  0  0  0  0  0  0  0  0  0
   -0.3542   -6.5333    0.0000 C   0  0  0  0  0  0  0  0  0  0  0  0
   -0.0500   -9.5250    0.0000 C   0  0  0  0  0  0  0  0  0  0  0  0
   -1.0667   -7.9708    0.0000 C   0  0  0  0  0  0  0  0  0  0  0  0
   -1.3667   -7.3292    0.0000 N   0  0  0  0  0  0  0  0  0  0  0  0
   -0.1875   -5.8458    0.0000 O   0  0  0  0  0  0  0  0  0  0  0  0
   -0.4667  -10.0958    0.0000 O   0  0  0  0  0  0  0  0  0  0  0  0
   -1.0500   -6.6875    0.0000 C   0  0  0  0  0  0  0  0  0  0  0  0
   -0.8875   -8.4917    0.0000 C   0  0  0  0  0  0  0  0  0  0  0  0
   -1.5000   -8.8458    0.0000 O   0  0  0  0  0  0  0  0  0  0  0  0
  2  1  1  0
  3  2  2  0
  4  1  1  1
  5  6  2  0
  6  1  1  0
  7  2  1  0
  8  4  1  0
  9  4  1  0
 10  8  1  0
 11  3  1  0
 12  9  1  0
 13  7  2  0
 14 13  1  0
 11 15  1  1
 12 16  1  6
 17 11  1  0
 10 18  1  1
 19 18  1  0
  3  5  1  0
 12 10  1  0
 17 14  1  0
M  END
> <chembl_id>
CHEMBL1580

> <chembl_pref_name>
PENTOSTATIN

$$$$

     RDKit          2D

 19 17  0  0  0  0  0  0  0  0999 V2000
    1.7792   -1.5375    0.0000 N   0  0  0  0  0  0  0  0  0  0  0  0
    4.2250   -2.4750    0.0000 O   0  0  0  0  0  0  0  0  0  0  0  0
    2.6375   -1.5375    0.0000 C   0  0  0  0  0  0  0  0  0  0  0  0
    1.2292   -2.4750    0.0000 C   0  0  0  0  0  0  0  0  0  0  0  0
    1.2292   -0.6167    0.0000 C   0  0  0  0  0  0  0  0  0  0  0  0
    3.1375   -2.4750    0.0000 C   0  0  0  0  0  0  0  0  0  0  0  0
   -1.6208   -1.4750    0.0000 C   0  0  0  0  0  0  0  0  0  0  0  0
   -2.5083    0.1583    0.0000 N   0  0  0  0  0  0  0  0  0  0  0  0
   -1.6083   -0.4792    0.0000 C   0  0  0  0  0  0  0  0  0  0  0  0
   -3.4833   -0.2917    0.0000 C   0  0  0  0  0  0  0  0  0  0  0  0
    0.4375    1.4958    0.0000 C   0  0  0  0  0  0  0  0  0  0  0  0
   -0.7458   -2.1042    0.0000 O   0  0  0  0  0  0  0  0  0  0  0  0
   -3.5833   -1.3417    0.0000 O   0  0  0  0  0  0  0  0  0  0  0  0
    0.5417    2.5708    0.0000 O   0  0  0  0  0  0  0  0  0  0  0  0
   -0.6375   -0.0292    0.0000 C   0  0  0  0  0  0  0  0  0  0  0  0
   -0.5333    1.0458    0.0000 C   0  0  0  0  0  0  0  0  0  0  0  0
   -2.5958   -1.9042    0.0000 O   0  0  0  0  0  0  0  0  0  0  0  0
    1.3542    0.8875    0.0000 O   0  0  0  0  0  0  0  0  0  0  0  0
   -4.3458    0.3375    0.0000 C   0  0  0  0  0  0  0  0  0  0  0  0
  2  6  1  0
  3  1  1  0
  4  1  1  0
  5  1  1  0
  6  3  1  0
  8  9  1  0
  9  7  1  0
 10  8  1  0
 11 16  1  0
 12  7  2  0
 13 10  2  0
 14 11  2  0
 15  9  1  0
 16 15  1  0
 17  7  1  0
 18 11  1  0
 19 10  1  0
M  END
> <chembl_id>
CHEMBL3833347

> <chembl_pref_name>
DEANOL ACEGLUMATE

$$$$

     RDKit          2D

 18 19  0  0  0  0  0  0  0  0999 V2000
    1.9792    0.6750    0.0000 N   0  0  0  0  0  0  0  0  0  0  0  0
    2.0542   -0.1042    0.0000 C   0  0  0  0  0  0  0  0  0  0  0  0
    2.7042    0.9958    0.0000 C   0  0  0  0  0  0  0  0  0  0  0  0
   -0.7625    0.6750    0.0000 N   0  0  0  0  0  0  0  0  0  0  0  0
    0.6000    0.6750    0.0000 C   0  0  0  0  0  0  0  0  0  0  0  0
   -0.0708    1.0708    0.0000 C   0  0  0  0  0  0  0  0  0  0  0  0
    3.2417    0.4083    0.0000 S   0  0  0  0  0  0  0  0  0  0  0  0
    1.2875    1.0708    0.0000 C   0  0  0  0  0  0  0  0  0  0  0  0
    2.8500   -0.2667    0.0000 C   0  0  0  0  0  0  0  0  0  0  0  0
   -0.0708   -0.5125    0.0000 N   0  0  0  0  0  0  0  0  0  0  0  0
   -0.7625   -0.1042    0.0000 C   0  0  0  0  0  0  0  0  0  0  0  0
    0.6000   -0.1042    0.0000 C   0  0  0  0  0  0  0  0  0  0  0  0
   -0.0708    1.8708    0.0000 N   0  0  0  0  0  0  0  0  0  0  0  0
    3.1667   -1.0000    0.0000 C   0  0  0  0  0  0  0  0  0  0  0  0
    1.4750   -0.6417    0.0000 C   0  0  0  0  0  0  0  0  0  0  0  0
    4.2792   -1.8125    0.0000 O   0  0  0  0  0  0  0  0  0  0  0  0
   -1.4583   -0.5125    0.0000 C   0  0  0  0  0  0  0  0  0  0  0  0
    3.9667   -1.0792    0.0000 C   0  0  0  0  0  0  0  0  0  0  0  0
  2  1  1  0
  3  1  2  0
  4  6  2  0
  5  8  1  0
  6  5  1  0
  7  3  1  0
  8  1  1  0
  9  2  2  0
 10 12  1  0
 11 10  2  0
 12  5  2  0
 13  6  1  0
 14  9  1  0
 15  2  1  0
 16 18  1  0
 17 11  1  0
 18 14  1  0
  9  7  1  0
  4 11  1  0
M  CHG  1   1   1
M  END
> <chembl_id>
CHEMBL1547

> <chembl_pref_name>
THIAMINE

$$$$

     RDKit          2D

 12  9  0  0  0  0  0  0  0  0999 V2000
    0.7542    2.5208    0.0000 K   0  0  0  0  0 15  0  0  0  0  0  0
    0.1792   -1.2167    0.0000 C   0  0  0  0  0  0  0  0  0  0  0  0
    1.3125   -0.3250    0.0000 C   0  0  0  0  0  0  0  0  0  0  0  0
   -1.1333   -0.6875    0.0000 C   0  0  0  0  0  0  0  0  0  0  0  0
    2.6542   -0.8542    0.0000 C   0  0  0  0  0  0  0  0  0  0  0  0
   -2.2708   -1.5750    0.0000 O   0  0  0  0  0  0  0  0  0  0  0  0
    2.8542   -2.2792    0.0000 O   0  0  0  0  0  0  0  0  0  0  0  0
    3.7792    0.0208    0.0000 O   0  0  0  0  0  0  0  0  0  0  0  0
   -1.3458    0.7208    0.0000 O   0  0  0  0  0  0  0  0  0  0  0  0
    0.3875   -2.6375    0.0000 O   0  0  0  0  0  0  0  0  0  0  0  0
    1.1042    1.0833    0.0000 O   0  0  0  0  0  0  0  0  0  0  0  0
   -3.7083   -2.6375    0.0000 Na  0  0  0  0  0 15  0  0  0  0  0  0
  3  2  1  0
  4  2  1  0
  5  3  1  0
  6  4  1  0
  7  5  1  0
  8  5  2  0
  9  4  2  0
  2 10  1  1
  3 11  1  1
M  CHG  4   1   1   6  -1   7  -1  12   1
M  END
> <chembl_id>
CHEMBL2219738

> <chembl_pref_name>
POTASSIUM SODIUM TARTRATE

$$$$

     RDKit          2D

 23 26  0  0  1  0  0  0  0  0999 V2000
    3.4417   -3.9875    0.0000 C   0  0  0  0  0  0  0  0  0  0  0  0
    3.4417   -4.7000    0.0000 C   0  0  0  0  0  0  0  0  0  0  0  0
    2.8167   -5.0417    0.0000 C   0  0  0  0  0  0  0  0  0  0  0  0
    2.1917   -4.6875    0.0000 C   0  0  0  0  0  0  0  0  0  0  0  0
    1.5917   -5.0375    0.0000 C   0  0  0  0  0  0  0  0  0  0  0  0
    1.5792   -5.7500    0.0000 C   0  0  0  0  0  0  0  0  0  0  0  0
    4.1292   -3.7667    0.0000 C   0  0  0  0  0  0  0  0  0  0  0  0
    2.8167   -3.6250    0.0000 C   0  0  0  0  0  0  0  0  0  0  0  0
    2.2042   -3.9875    0.0000 C   0  0  0  0  0  0  0  0  0  0  0  0
    4.1042   -4.9250    0.0000 C   0  0  0  0  0  0  0  0  0  0  0  0
    2.8042   -5.7625    0.0000 C   0  0  0  0  0  0  0  0  0  0  0  0
    0.9667   -4.6750    0.0000 C   0  0  0  0  0  0  0  0  0  0  0  0
    2.1917   -6.1125    0.0000 C   0  0  0  0  0  0  0  0  0  0  0  0
    0.9542   -6.1000    0.0000 C   0  0  0  0  0  0  0  0  0  0  0  0
    4.5417   -4.3417    0.0000 C   0  0  0  0  0  0  0  0  0  0  0  0
    4.3542   -3.0917    0.0000 O   0  0  0  0  0  0  0  0  0  0  0  0
    0.3417   -5.7500    0.0000 C   0  0  0  0  0  0  0  0  0  0  0  0
    0.3417   -5.0375    0.0000 C   0  0  0  0  0  0  0  0  0  0  0  0
    3.4292   -3.2792    0.0000 C   0  0  0  0  0  0  0  0  0  0  0  0
   -0.2875   -6.0917    0.0000 O   0  0  0  0  0  0  0  0  0  0  0  0
    3.4917   -5.3250    0.0000 H   0  0  0  0  0  0  0  0  0  0  0  0
    2.8042   -4.2750    0.0000 H   0  0  0  0  0  0  0  0  0  0  0  0
    2.1667   -5.3417    0.0000 H   0  0  0  0  0  0  0  0  0  0  0  0
  2  1  1  0
  3  2  1  0
  4  9  1  0
  5  4  1  0
  6  5  2  0
  7  1  1  0
  8  1  1  0
  9  8  1  0
 10  2  1  0
 11  3  1  0
 12  5  1  0
 13 11  1  0
 14  6  1  0
 15  7  1  0
 16  7  2  0
 17 18  1  0
 18 12  2  0
  1 19  1  1
 20 17  1  0
  2 21  1  6
  3 22  1  1
  4 23  1  6
 10 15  1  0
  3  4  1  0
 13  6  1  0
 14 17  2  0
M  END
> <chembl_id>
CHEMBL1405

> <chembl_pref_name>
ESTRONE

$$$$

     RDKit          2D

 17 16  0  0  0  0  0  0  0  0999 V2000
    7.6894   -1.8789    0.0000 Cl  0  0  0  0  0  0  0  0  0  0  0  0
    2.5973   -1.5031    0.0000 C   0  0  0  0  0  0  0  0  0  0  0  0
    1.2990   -0.7500    0.0000 C   0  0  0  0  0  0  0  0  0  0  0  0
    3.8933   -3.7570    0.0000 N   0  0  0  0  0  0  0  0  0  0  0  0
    2.5951   -3.0039    0.0000 C   0  0  0  0  0  0  0  0  0  0  0  0
    1.2990    0.7500    0.0000 C   0  0  0  0  0  0  0  0  0  0  0  0
    3.6375   -0.9049    0.0000 O   0  0  0  0  0  0  0  0  0  0  0  0
    3.8912   -5.2578    0.0000 C   0  0  0  0  0  0  0  0  0  0  0  0
    0.0000    1.5000    0.0000 C   0  0  0  0  0  0  0  0  0  0  0  0
    0.0000    2.7000    0.0000 Cl  0  0  0  0  0  0  0  0  0  0  0  0
    0.0000   -1.5000    0.0000 C   0  0  0  0  0  0  0  0  0  0  0  0
   -1.2990   -0.7500    0.0000 C   0  0  0  0  0  0  0  0  0  0  0  0
    1.5548   -3.6021    0.0000 C   0  0  0  0  0  0  0  0  0  0  0  0
    4.9292   -5.8600    0.0000 C   0  0  0  0  0  0  0  0  0  0  0  0
    2.8509   -5.8560    0.0000 C   0  0  0  0  0  0  0  0  0  0  0  0
    3.8889   -6.4578    0.0000 C   0  0  0  0  0  0  0  0  0  0  0  0
   -1.2990    0.7500    0.0000 C   0  0  0  0  0  0  0  0  0  0  0  0
  2  3  1  0
  2  5  1  0
  4  5  1  0
  3  6  2  0
  2  7  2  0
  4  8  1  0
  6  9  1  0
  9 10  1  0
  3 11  1  0
 11 12  2  0
  5 13  1  0
  8 14  1  0
  8 15  1  0
  8 16  1  0
  9 17  2  0
 12 17  1  0
M  END
> <chembl_id>
CHEMBL1698

> <chembl_pref_name>
BUPROPION HYDROCHLORIDE

$$$$

     RDKit          2D

 10  9  0  0  0  0  0  0  0  0999 V2000
   15.7815   -9.3626    0.0000 C   0  0  0  0  0  0  0  0  0  0  0  0
   15.0670   -9.7751    0.0000 C   0  0  0  0  0  0  0  0  0  0  0  0
   15.0670  -10.6001    0.0000 C   0  0  0  0  0  0  0  0  0  0  0  0
   14.3525  -11.0126    0.0000 C   0  0  0  0  0  0  0  0  0  0  0  0
   14.3525  -11.8376    0.0000 C   0  0  0  0  0  0  0  0  0  0  0  0
   13.6381  -10.6001    0.0000 C   0  0  0  0  0  0  0  0  0  0  0  0
   13.6381   -9.7751    0.0000 C   0  0  0  0  0  0  0  0  0  0  0  0
   12.9236   -9.3626    0.0000 C   0  0  0  0  0  0  0  0  0  0  0  0
   13.6381  -12.2501    0.0000 O   0  0  0  0  0  0  0  0  0  0  0  0
   15.0670  -12.2501    0.0000 O   0  0  0  0  0  0  0  0  0  0  0  0
  1  2  1  0
  2  3  1  0
  3  4  1  0
  4  5  1  0
  4  6  1  0
  6  7  1  0
  7  8  1  0
  5  9  2  0
  5 10  1  0
M  END
> <chembl_id>
CHEMBL109

> <chembl_pref_name>
VALPROIC ACID

$$$$

     RDKit          2D

 18 18  0  0  0  0  0  0  0  0999 V2000
    4.0417   -0.2042    0.0000 Cl  0  0  0  0  0  0  0  0  0  0  0  0
   -0.3583    0.1208    0.0000 C   0  0  0  0  0  0  0  0  0  0  0  0
    1.5250    0.1000    0.0000 N   0  0  0  0  0  0  0  0  0  0  0  0
   -1.3208   -0.4167    0.0000 C   0  0  0  0  0  0  0  0  0  0  0  0
    0.6167   -0.3167    0.0000 C   0  0  0  0  0  0  0  0  0  0  0  0
   -2.2833    0.1625    0.0000 C   0  0  0  0  0  0  0  0  0  0  0  0
   -3.2458   -0.4167    0.0000 C   0  0  0  0  0  0  0  0  0  0  0  0
   -4.2083    0.1208    0.0000 O   0  0  0  0  0  0  0  0  0  0  0  0
   -0.3458   -0.9792    0.0000 C   0  0  0  0  0  0  0  0  0  0  0  0
   -0.6208    1.1750    0.0000 C   0  0  0  0  0  0  0  0  0  0  0  0
    2.4000   -0.4375    0.0000 C   0  0  0  0  0  0  0  0  0  0  0  0
    1.8500    1.2000    0.0000 C   0  0  0  0  0  0  0  0  0  0  0  0
   -1.3208   -1.5167    0.0000 C   0  0  0  0  0  0  0  0  0  0  0  0
   -2.2833   -2.0875    0.0000 C   0  0  0  0  0  0  0  0  0  0  0  0
   -3.2458   -1.5167    0.0000 C   0  0  0  0  0  0  0  0  0  0  0  0
    0.5750   -1.5542    0.0000 C   0  0  0  0  0  0  0  0  0  0  0  0
    0.0292    2.0958    0.0000 C   0  0  0  0  0  0  0  0  0  0  0  0
    1.1917    2.0958    0.0000 C   0  0  0  0  0  0  0  0  0  0  0  0
  3  5  1  0
  4  2  1  0
  5  2  1  0
  6  4  1  0
  7  6  2  0
  8  7  1  0
  9  2  1  0
 10  2  1  0
 11  3  1  0
 12  3  1  0
 13  4  2  0
 14 13  1  0
 15 14  2  0
 16  9  1  0
 17 10  1  0
 18 17  1  0
 12 18  1  0
  7 15  1  0
M  END
> <chembl_id>
CHEMBL1477274

> <chembl_pref_name>
MEPTAZINOL HYDROCHLORIDE

$$$$

     RDKit          2D

 14 13  0  0  0  0  0  0  0  0999 V2000
    4.6792   -6.7500    0.0000 Cl  0  0  0  0  0  0  0  0  0  0  0  0
    2.8250   -6.2292    0.0000 C   0  0  0  0  0  0  0  0  0  0  0  0
    3.4417   -5.8792    0.0000 O   0  0  0  0  0  0  0  0  0  0  0  0
    2.8250   -6.9375    0.0000 C   0  0  0  0  0  0  0  0  0  0  0  0
    2.1792   -5.8792    0.0000 C   0  0  0  0  0  0  0  0  0  0  0  0
    4.0625   -6.2667    0.0000 C   0  0  0  0  0  0  0  0  0  0  0  0
    4.6750   -5.2250    0.0000 N   0  0  0  0  0  0  0  0  0  0  0  0
    4.6750   -5.8792    0.0000 C   0  0  0  0  0  0  0  0  0  0  0  0
    1.5792   -6.9375    0.0000 C   0  0  0  0  0  0  0  0  0  0  0  0
    2.1792   -7.2792    0.0000 C   0  0  0  0  0  0  0  0  0  0  0  0
    1.5792   -6.2292    0.0000 C   0  0  0  0  0  0  0  0  0  0  0  0
    3.4417   -7.2792    0.0000 C   0  0  0  0  0  0  0  0  0  0  0  0
    2.1750   -5.1667    0.0000 C   0  0  0  0  0  0  0  0  0  0  0  0
    5.2792   -6.2292    0.0000 C   0  0  0  0  0  0  0  0  0  0  0  0
  3  2  1  0
  4  2  2  0
  5  2  1  0
  6  3  1  0
  7  8  1  0
  8  6  1  0
  9 11  1  0
 10  4  1  0
 11  5  2  0
 12  4  1  0
 13  5  1  0
 14  8  1  0
  9 10  2  0
M  END
> <chembl_id>
CHEMBL1200606

> <chembl_pref_name>
MEXILETINE HYDROCHLORIDE

$$$$

     RDKit          2D

  3  0  0  0  0  0  0  0  0  0999 V2000
    0.4042   -1.1250    0.0000 Mg  0  0  0  0  0 15  0  0  0  0  0  0
   -0.7583   -1.1542    0.0000 O   0  0  0  0  0  0  0  0  0  0  0  0
    1.9917   -1.2167    0.0000 O   0  0  0  0  0  0  0  0  0  0  0  0
M  CHG  3   1   2   2  -1   3  -1
M  END
> <chembl_id>
CHEMBL1200718

> <chembl_pref_name>
MAGNESIA, [MILK OF]

$$$$

     RDKit          2D

 15 14  0  0  0  0  0  0  0  0999 V2000
   -0.7375   -0.8042    0.0000 N   0  0  0  0  0  0  0  0  0  0  0  0
   -1.3583   -1.1667    0.0000 N   0  0  0  0  0  0  0  0  0  0  0  0
    1.1167   -1.1667    0.0000 C   0  0  0  0  0  0  0  0  0  0  0  0
   -0.1208   -1.1625    0.0000 C   0  0  0  0  0  0  0  0  0  0  0  0
    0.5000   -0.8042    0.0000 C   0  0  0  0  0  0  0  0  0  0  0  0
    1.1167   -1.8792    0.0000 C   0  0  0  0  0  0  0  0  0  0  0  0
    1.7292   -0.8042    0.0000 C   0  0  0  0  0  0  0  0  0  0  0  0
    2.3500   -1.1625    0.0000 C   0  0  0  0  0  0  0  0  0  0  0  0
    1.7292   -2.2292    0.0000 C   0  0  0  0  0  0  0  0  0  0  0  0
    2.3417   -1.8792    0.0000 C   0  0  0  0  0  0  0  0  0  0  0  0
   -2.5750   -1.5250    0.0000 S   0  0  0  0  0  0  0  0  0  0  0  0
   -2.2250   -0.9042    0.0000 O   0  0  0  0  0  0  0  0  0  0  0  0
   -2.9333   -0.9042    0.0000 O   0  0  0  0  0  0  0  0  0  0  0  0
   -3.1875   -1.8792    0.0000 O   0  0  0  0  0  0  0  0  0  0  0  0
   -1.9625   -1.8792    0.0000 O   0  0  0  0  0  0  0  0  0  0  0  0
  2  1  1  0
  3  5  1  0
  4  1  1  0
  5  4  1  0
  6  3  2  0
  7  3  1  0
  8  7  2  0
  9  6  1  0
 10  9  2  0
 10  8  1  0
 12 11  2  0
 13 11  2  0
 14 11  1  0
 15 11  1  0
M  END
> <chembl_id>
CHEMBL1200895

> <chembl_pref_name>
PHENELZINE SULFATE

$$$$

     RDKit          2D

 17 17  0  0  0  0  0  0  0  0999 V2000
    1.7692   -1.5642    0.0000 O   0  0  0  0  0  0  0  0  0  0  0  0
    1.3567   -0.8497    0.0000 P   0  0  0  0  0  0  0  0  0  0  0  0
    2.0711   -0.4372    0.0000 O   0  0  0  0  0  0  0  0  0  0  0  0
    0.6422   -1.2622    0.0000 O   0  0  0  0  0  0  0  0  0  0  0  0
    0.9442   -0.1353    0.0000 C   0  0  0  0  0  0  0  0  0  0  0  0
    1.6586    0.2772    0.0000 O   0  0  0  0  0  0  0  0  0  0  0  0
    0.5317    0.5792    0.0000 P   0  0  0  0  0  0  0  0  0  0  0  0
    1.2461    0.9917    0.0000 O   0  0  0  0  0  0  0  0  0  0  0  0
   -0.1828    0.1667    0.0000 O   0  0  0  0  0  0  0  0  0  0  0  0
    0.1192    1.2937    0.0000 O   0  0  0  0  0  0  0  0  0  0  0  0
    0.2297   -0.5478    0.0000 C   0  0  0  0  0  0  0  0  0  0  0  0
    0.2297   -1.3728    0.0000 C   0  0  0  0  0  0  0  0  0  0  0  0
    0.9442   -1.7853    0.0000 C   0  0  0  0  0  0  0  0  0  0  0  0
    0.9442   -2.6103    0.0000 C   0  0  0  0  0  0  0  0  0  0  0  0
    0.2297   -3.0228    0.0000 C   0  0  0  0  0  0  0  0  0  0  0  0
   -0.4848   -2.6103    0.0000 N   0  0  0  0  0  0  0  0  0  0  0  0
   -0.4848   -1.7853    0.0000 C   0  0  0  0  0  0  0  0  0  0  0  0
  1  2  1  0
  3  2  2  0
  4  2  1  0
  5  2  1  0
  5  6  1  0
  5  7  1  0
 11  5  1  0
  8  7  1  0
  9  7  1  0
 10  7  2  0
 12 11  1  0
 13 12  2  0
 12 17  1  0
 13 14  1  0
 15 14  2  0
 15 16  1  0
 17 16  2  0
M  END
> <chembl_id>
CHEMBL923

> <chembl_pref_name>
RISEDRONIC ACID

$$$$

     RDKit          2D

 11 10  0  0  0  0  0  0  0  0999 V2000
   10.2485   -9.5113    0.0000 O   0  0  0  0  0  0  0  0  0  0  0  0
   10.9630   -9.0988    0.0000 Si  0  0  0  0  0  4  0  0  0  0  0  0
   11.6775   -8.6863    0.0000 O   0  0  0  0  0  0  0  0  0  0  0  0
   10.5505   -8.3843    0.0000 O   0  0  0  0  0  0  0  0  0  0  0  0
   10.9630   -7.6699    0.0000 Si  0  0  0  0  0  4  0  0  0  0  0  0
   10.5505   -6.9554    0.0000 O   0  0  0  0  0  0  0  0  0  0  0  0
   11.7880   -7.6699    0.0000 O   0  0  0  0  0  0  0  0  0  0  0  0
   11.3755   -9.8133    0.0000 O   0  0  0  0  0  0  0  0  0  0  0  0
   10.9630  -10.5278    0.0000 Si  0  0  0  0  0  4  0  0  0  0  0  0
   11.3755  -11.2422    0.0000 O   0  0  0  0  0  0  0  0  0  0  0  0
   10.1380  -10.5278    0.0000 O   0  0  0  0  0  0  0  0  0  0  0  0
  1  2  1  0
  2  3  1  0
  2  4  1  0
  4  5  1  0
  5  6  2  0
  5  7  1  0
  2  8  1  0
  8  9  1  0
  9 10  2  0
  9 11  1  0
M  END
> <chembl_id>
CHEMBL2109882

> <chembl_pref_name>
TRISILICATE

$$$$

     RDKit          2D

 18 18  0  0  0  0  0  0  0  0999 V2000
    5.8917   -6.0292    0.0000 Na  0  0  0  0  0 15  0  0  0  0  0  0
    3.1625   -5.6292    0.0000 C   0  0  0  0  0  0  0  0  0  0  0  0
    4.4125   -5.6292    0.0000 C   0  0  0  0  0  0  0  0  0  0  0  0
    2.5417   -5.9792    0.0000 C   0  0  0  0  0  0  0  0  0  0  0  0
    3.7792   -5.9792    0.0000 C   0  0  0  0  0  0  0  0  0  0  0  0
    1.9417   -5.6250    0.0000 C   0  0  0  0  0  0  0  0  0  0  0  0
    1.9417   -4.9042    0.0000 C   0  0  0  0  0  0  0  0  0  0  0  0
    5.0042   -6.0000    0.0000 O   0  0  0  0  0  0  0  0  0  0  0  0
    3.1667   -4.9250    0.0000 C   0  0  0  0  0  0  0  0  0  0  0  0
    4.4250   -4.9167    0.0000 O   0  0  0  0  0  0  0  0  0  0  0  0
    1.3250   -4.5625    0.0000 C   0  0  0  0  0  0  0  0  0  0  0  0
    2.5417   -4.5667    0.0000 C   0  0  0  0  0  0  0  0  0  0  0  0
    1.3167   -5.9792    0.0000 C   0  0  0  0  0  0  0  0  0  0  0  0
    0.7042   -4.9125    0.0000 C   0  0  0  0  0  0  0  0  0  0  0  0
    0.7042   -5.6250    0.0000 C   0  0  0  0  0  0  0  0  0  0  0  0
    0.0917   -4.5417    0.0000 O   0  0  0  0  0  0  0  0  0  0  0  0
    3.7792   -6.7000    0.0000 C   0  0  0  0  0  0  0  0  0  0  0  0
   -0.5333   -4.9000    0.0000 C   0  0  0  0  0  0  0  0  0  0  0  0
  3  5  1  0
  4  2  1  0
  5  2  1  0
  6  4  2  0
  7 12  2  0
  8  3  1  0
  9  2  2  0
 10  3  2  0
 11  7  1  0
 12  9  1  0
 13  6  1  0
 14 11  2  0
 15 13  2  0
 16 14  1  0
  5 17  1  1
 18 16  1  0
  7  6  1  0
 14 15  1  0
M  CHG  2   1   1   8  -1
M  END
> <chembl_id>
CHEMBL1200806

> <chembl_pref_name>
NAPROXEN SODIUM

$$$$

     RDKit          2D

  1  0  0  0  0  0  0  0  0  0999 V2000
    2.1792    0.8125    0.0000 Xe  0  0  0  0  0 15  0  0  0  0  0  0
M  END
> <chembl_id>
CHEMBL1236802

> <chembl_pref_name>
XENON

$$$$

     RDKit          2D

 17 18  0  0  1  0  0  0  0  0999 V2000
    4.5750   -3.9500    0.0000 N   0  0  0  0  0  0  0  0  0  0  0  0
    4.5792   -4.9500    0.0000 C   0  0  0  0  0  0  0  0  0  0  0  0
    3.9625   -3.5917    0.0000 C   0  0  0  0  0  0  0  0  0  0  0  0
    3.9625   -2.8875    0.0000 N   0  0  0  0  0  0  0  0  0  0  0  0
    5.1833   -2.8875    0.0000 N   0  0  0  0  0  0  0  0  0  0  0  0
    4.3625   -5.6250    0.0000 C   0  0  0  0  0  0  0  0  0  0  0  0
    4.0042   -4.5292    0.0000 O   0  0  0  0  0  0  0  0  0  0  0  0
    5.1833   -3.5917    0.0000 C   0  0  0  0  0  0  0  0  0  0  0  0
    4.5750   -2.5292    0.0000 C   0  0  0  0  0  0  0  0  0  0  0  0
    3.6500   -5.6250    0.0000 C   0  0  0  0  0  0  0  0  0  0  0  0
    3.4333   -4.9500    0.0000 C   0  0  0  0  0  0  0  0  0  0  0  0
    3.3458   -3.9458    0.0000 O   0  0  0  0  0  0  0  0  0  0  0  0
    4.7750   -6.1958    0.0000 O   0  0  0  0  0  0  0  0  0  0  0  0
    4.5750   -1.8250    0.0000 N   0  0  0  0  0  0  0  0  0  0  0  0
    3.2375   -6.1958    0.0000 O   0  0  0  0  0  0  0  0  0  0  0  0
    2.8167   -4.5917    0.0000 C   0  0  0  0  0  0  0  0  0  0  0  0
    2.2000   -4.9458    0.0000 O   0  0  0  0  0  0  0  0  0  0  0  0
  2  1  1  1
  3  1  1  0
  4  3  1  0
  5  8  2  0
  6  2  1  0
  7  2  1  0
  8  1  1  0
  9  4  2  0
 10  6  1  0
 11  7  1  0
 12  3  2  0
  6 13  1  6
 14  9  1  0
 10 15  1  6
 11 16  1  1
 17 16  1  0
  9  5  1  0
 10 11  1  0
M  END
> <chembl_id>
CHEMBL1489

> <chembl_pref_name>
AZACITIDINE

$$$$

     RDKit          2D

 18 18  0  0  0  0  0  0  0  0999 V2000
    9.3625   -4.2167    0.0000 Na  0  0  0  0  0 15  0  0  0  0  0  0
    8.8250   -5.3417    0.0000 S   0  0  0  0  0  0  0  0  0  0  0  0
    9.4292   -4.9875    0.0000 N   0  0  0  0  0  0  0  0  0  0  0  0
   10.0542   -5.3375    0.0000 C   0  0  0  0  0  0  0  0  0  0  0  0
    8.2042   -5.0000    0.0000 C   0  0  0  0  0  0  0  0  0  0  0  0
    8.4750   -5.9542    0.0000 O   0  0  0  0  0  0  0  0  0  0  0  0
    9.1875   -5.9542    0.0000 O   0  0  0  0  0  0  0  0  0  0  0  0
   10.0667   -6.0417    0.0000 N   0  0  0  0  0  0  0  0  0  0  0  0
   10.6667   -4.9667    0.0000 N   0  0  0  0  0  0  0  0  0  0  0  0
    7.6000   -5.3625    0.0000 C   0  0  0  0  0  0  0  0  0  0  0  0
    8.2000   -4.2917    0.0000 C   0  0  0  0  0  0  0  0  0  0  0  0
    6.9750   -4.3042    0.0000 C   0  0  0  0  0  0  0  0  0  0  0  0
    6.3542   -3.9542    0.0000 N   0  0  0  0  0  0  0  0  0  0  0  0
    6.9792   -5.0167    0.0000 C   0  0  0  0  0  0  0  0  0  0  0  0
    7.5875   -3.9417    0.0000 C   0  0  0  0  0  0  0  0  0  0  0  0
   11.3042   -6.0292    0.0000 C   0  0  0  0  0  0  0  0  0  0  0  0
   10.7000   -6.3875    0.0000 C   0  0  0  0  0  0  0  0  0  0  0  0
   11.2917   -5.3167    0.0000 C   0  0  0  0  0  0  0  0  0  0  0  0
  3  2  1  0
  4  3  1  0
  5  2  1  0
  6  2  2  0
  7  2  2  0
  8  4  1  0
  9  4  2  0
 10  5  2  0
 11  5  1  0
 12 15  1  0
 13 12  1  0
 14 10  1  0
 15 11  2  0
 16 18  2  0
 17  8  2  0
 18  9  1  0
 12 14  2  0
 16 17  1  0
M  CHG  2   1   1   3  -1
M  END
> <chembl_id>
CHEMBL1200351

> <chembl_pref_name>
SULFADIAZINE SODIUM

$$$$

     RDKit          2D

 24 27  0  0  0  0  0  0  0  0999 V2000
   -0.4741   -3.7151    0.0000 C   0  0  0  0  0  0  0  0  0  0  0  0
    1.3851   -3.7349    0.0000 O   0  0  0  0  0  0  0  0  0  0  0  0
    0.0353   -4.3669    0.0000 C   0  0  0  0  0  0  0  0  0  0  0  0
    0.8622   -4.3728    0.0000 C   0  0  0  0  0  0  0  0  0  0  0  0
   -0.2845   -2.9097    0.0000 C   0  0  0  0  0  0  0  0  0  0  0  0
   -0.1343   -1.2693    0.0000 C   0  0  0  0  0  0  0  0  0  0  0  0
   -0.8830   -1.6157    0.0000 C   0  0  0  0  0  0  0  0  0  0  0  0
   -0.9593   -2.4388    0.0000 C   0  0  0  0  0  0  0  0  0  0  0  0
    0.5383   -1.7462    0.0000 C   0  0  0  0  0  0  0  0  0  0  0  0
    0.4631   -2.5609    0.0000 C   0  0  0  0  0  0  0  0  0  0  0  0
    1.1275   -3.0308    0.0000 C   0  0  0  0  0  0  0  0  0  0  0  0
    1.8710   -2.6908    0.0000 O   0  0  0  0  0  0  0  0  0  0  0  0
    1.9462   -1.8760    0.0000 C   0  0  0  0  0  0  0  0  0  0  0  0
    1.2777   -1.4013    0.0000 C   0  0  0  0  0  0  0  0  0  0  0  0
    1.3525   -0.5788    0.0000 C   0  0  0  0  0  0  0  0  0  0  0  0
    2.6967   -1.5313    0.0000 O   0  0  0  0  0  0  0  0  0  0  0  0
    1.5099   -5.0357    0.0000 C   0  0  0  0  0  0  0  0  0  0  0  0
   -1.7084   -2.7866    0.0000 C   0  0  0  0  0  0  0  0  0  0  0  0
    0.2461   -3.6296    0.0000 O   0  0  0  0  0  0  0  0  0  0  0  0
    0.5469   -5.0829    0.0000 O   0  0  0  0  0  0  0  0  0  0  0  0
    3.3706   -2.0089    0.0000 C   0  0  0  0  0  0  0  0  0  0  0  0
    1.8419   -3.4433    0.0000 H   0  0  0  0  0  0  0  0  0  0  0  0
    0.5383   -0.9212    0.0000 H   0  0  0  0  0  0  0  0  0  0  0  0
   -1.0814   -3.1232    0.0000 H   0  0  0  0  0  0  0  0  0  0  0  0
  3  4  1  0
  5 10  1  0
 11  2  1  0
  5  1  1  0
  1  3  1  0
  9 14  1  0
 10 11  1  0
 11 12  1  0
 12 13  1  0
 13 14  1  0
 14 15  1  1
  5  8  1  0
 13 16  1  1
  9  6  1  0
  4 17  1  1
  6  7  1  0
  8 18  1  6
  7  8  1  0
 10 19  1  6
  9 10  1  0
  4 20  1  0
 19 20  1  0
  2  4  1  0
 16 21  1  0
 11 22  1  1
  9 23  1  6
  5 24  1  6
M  END
> <chembl_id>
CHEMBL566534

> <chembl_pref_name>
ARTEMETHER

$$$$

     RDKit          2D

  7  5  0  0  0  0  0  0  0  0999 V2000
    7.7417   -5.8417    0.0000 Na  0  0  0  0  0 15  0  0  0  0  0  0
    6.3667   -6.1000    0.0000 C   0  0  0  0  0  0  0  0  0  0  0  0
    6.9875   -5.7542    0.0000 O   0  0  0  0  0  0  0  0  0  0  0  0
    6.3667   -6.8125    0.0000 O   0  0  0  0  0  0  0  0  0  0  0  0
    5.7542   -5.7417    0.0000 C   0  0  0  0  0  0  0  0  0  0  0  0
    5.7542   -5.0375    0.0000 O   0  0  0  0  0  0  0  0  0  0  0  0
    5.1417   -6.0917    0.0000 C   0  0  0  0  0  0  0  0  0  0  0  0
  3  2  1  0
  4  2  2  0
  5  2  1  0
  6  5  1  0
  7  5  1  0
M  CHG  2   1   1   3  -1
M  END
> <chembl_id>
CHEMBL1357

> <chembl_pref_name>
SODIUM LACTATE

$$$$

     RDKit          2D

 14 14  0  0  0  0  0  0  0  0999 V2000
    1.2990   -0.7500    0.0000 P   0  0  0  0  0  0  0  0  0  0  0  0
    1.2990    0.7500    0.0000 N   0  0  0  0  0  0  0  0  0  0  0  0
    1.2626   -2.2300    0.0000 N   0  0  0  0  0  0  0  0  0  0  0  0
    0.0000   -1.5000    0.0000 O   0  0  0  0  0  0  0  0  0  0  0  0
    2.3233   -0.1247    0.0000 O   0  0  0  0  0  0  0  0  0  0  0  0
   -0.0368   -2.9810    0.0000 C   0  0  0  0  0  0  0  0  0  0  0  0
    2.5609   -2.9829    0.0000 C   0  0  0  0  0  0  0  0  0  0  0  0
   -1.0761   -5.0822    0.0000 Cl  0  0  0  0  0  0  0  0  0  0  0  0
    3.5970   -5.0858    0.0000 Cl  0  0  0  0  0  0  0  0  0  0  0  0
    0.0000    1.5000    0.0000 C   0  0  0  0  0  0  0  0  0  0  0  0
   -1.2990    0.7500    0.0000 C   0  0  0  0  0  0  0  0  0  0  0  0
   -1.2990   -0.7500    0.0000 C   0  0  0  0  0  0  0  0  0  0  0  0
   -0.0372   -4.4818    0.0000 C   0  0  0  0  0  0  0  0  0  0  0  0
    2.5589   -4.4838    0.0000 C   0  0  0  0  0  0  0  0  0  0  0  0
  2  1  1  0
  3  1  1  0
  4  1  1  0
  5  1  2  0
  6  3  1  0
  7  3  1  0
  8 13  1  0
  9 14  1  0
 10  2  1  0
 11 12  1  0
 12  4  1  0
 13  6  1  0
 14  7  1  0
 11 10  1  0
M  END
> <chembl_id>
CHEMBL88

> <chembl_pref_name>
CYCLOPHOSPHAMIDE

$$$$

     RDKit          2D

 19 21  0  0  0  0  0  0  0  0999 V2000
    0.1542   -0.5042    0.0000 C   0  0  0  0  0  0  0  0  0  0  0  0
   -0.3958   -1.6917    0.0000 C   0  0  0  0  0  0  0  0  0  0  0  0
    1.4042   -0.0792    0.0000 C   0  0  0  0  0  0  0  0  0  0  0  0
    3.0250   -1.9000    0.0000 N   0  0  0  0  0  0  0  0  0  0  0  0
    2.6000   -0.6542    0.0000 C   0  0  0  0  0  0  0  0  0  0  0  0
    0.0125   -2.9375    0.0000 O   0  0  0  0  0  0  0  0  0  0  0  0
   -1.7125   -1.6125    0.0000 C   0  0  0  0  0  0  0  0  0  0  0  0
    1.2000   -3.5167    0.0000 C   0  0  0  0  0  0  0  0  0  0  0  0
    2.4417   -3.0917    0.0000 C   0  0  0  0  0  0  0  0  0  0  0  0
   -0.8125    0.3375    0.0000 C   0  0  0  0  0  0  0  0  0  0  0  0
    4.3417   -1.9875    0.0000 C   0  0  0  0  0  0  0  0  0  0  0  0
    1.6625    1.1958    0.0000 C   0  0  0  0  0  0  0  0  0  0  0  0
   -2.3000   -0.4292    0.0000 C   0  0  0  0  0  0  0  0  0  0  0  0
   -2.4375   -2.7167    0.0000 C   0  0  0  0  0  0  0  0  0  0  0  0
   -0.5583    1.6250    0.0000 C   0  0  0  0  0  0  0  0  0  0  0  0
    0.6625    2.0583    0.0000 C   0  0  0  0  0  0  0  0  0  0  0  0
   -3.6083   -0.3542    0.0000 C   0  0  0  0  0  0  0  0  0  0  0  0
   -3.7458   -2.6292    0.0000 C   0  0  0  0  0  0  0  0  0  0  0  0
   -4.3458   -1.4500    0.0000 C   0  0  0  0  0  0  0  0  0  0  0  0
  2  1  1  0
  3  1  1  0
  4  5  1  0
  5  3  1  0
  6  2  1  0
  7  2  1  0
  8  6  1  0
  9  4  1  0
 10  1  2  0
 11  4  1  0
 12  3  2  0
 13  7  2  0
 14  7  1  0
 15 10  1  0
 16 15  2  0
 17 13  1  0
 18 14  2  0
 19 17  2  0
 12 16  1  0
  8  9  1  0
 18 19  1  0
M  END
> <chembl_id>
CHEMBL465026

> <chembl_pref_name>
NEFOPAM

$$$$

     RDKit          2D

 20 20  0  0  0  0  0  0  0  0999 V2000
    0.1417   -3.3250    0.0000 Cl  0  0  0  0  0  0  0  0  0  0  0  0
    0.0792   -0.1792    0.0000 O   0  0  0  0  0  0  0  0  0  0  0  0
   -0.5292   -0.5375    0.0000 C   0  0  0  0  0  0  0  0  0  0  0  0
    0.6958   -0.5292    0.0000 C   0  0  0  0  0  0  0  0  0  0  0  0
   -1.1458   -0.1833    0.0000 C   0  0  0  0  0  0  0  0  0  0  0  0
    0.6958   -1.2375    0.0000 C   0  0  0  0  0  0  0  0  0  0  0  0
    1.3083   -0.1750    0.0000 C   0  0  0  0  0  0  0  0  0  0  0  0
    2.5333   -0.1667    0.0000 N   0  0  0  0  0  0  0  0  0  0  0  0
   -0.5292   -1.2500    0.0000 C   0  0  0  0  0  0  0  0  0  0  0  0
    1.9208   -0.5250    0.0000 C   0  0  0  0  0  0  0  0  0  0  0  0
   -1.1500    0.5250    0.0000 C   0  0  0  0  0  0  0  0  0  0  0  0
   -1.7583   -0.5375    0.0000 C   0  0  0  0  0  0  0  0  0  0  0  0
    0.0875   -1.5917    0.0000 C   0  0  0  0  0  0  0  0  0  0  0  0
    1.3125   -1.5833    0.0000 C   0  0  0  0  0  0  0  0  0  0  0  0
    3.1500   -0.5208    0.0000 C   0  0  0  0  0  0  0  0  0  0  0  0
   -1.1458   -1.6042    0.0000 C   0  0  0  0  0  0  0  0  0  0  0  0
   -1.7583   -1.2500    0.0000 C   0  0  0  0  0  0  0  0  0  0  0  0
    0.0875   -2.3000    0.0000 C   0  0  0  0  0  0  0  0  0  0  0  0
    1.3167   -2.2917    0.0000 C   0  0  0  0  0  0  0  0  0  0  0  0
    0.7042   -2.6542    0.0000 C   0  0  0  0  0  0  0  0  0  0  0  0
  3  2  1  0
  4  2  1  0
  5  3  2  0
  4  6  1  6
  7  4  1  0
  8 10  1  0
  9  3  1  0
 10  7  1  0
 11  5  1  0
 12  5  1  0
 13  6  2  0
 14  6  1  0
 15  8  1  0
 16  9  2  0
 17 12  2  0
 18 13  1  0
 19 14  2  0
 20 19  1  0
 16 17  1  0
 20 18  2  0
M  END
> <chembl_id>
CHEMBL1702

> <chembl_pref_name>
ATOMOXETINE HYDROCHLORIDE

$$$$

     RDKit          2D

 11 10  0  0  0  0  0  0  0  0999 V2000
    4.3667   -1.6875    0.0000 C   0  0  0  0  0  0  0  0  0  0  0  0
    1.9042   -1.6875    0.0000 N   0  0  0  0  0  0  0  0  0  0  0  0
    3.7542   -1.3417    0.0000 O   0  0  0  0  0  0  0  0  0  0  0  0
    4.3667   -2.3917    0.0000 O   0  0  0  0  0  0  0  0  0  0  0  0
    4.9917   -1.3375    0.0000 N   0  0  0  0  0  0  0  0  0  0  0  0
    2.5292   -1.3292    0.0000 C   0  0  0  0  0  0  0  0  0  0  0  0
    3.1417   -1.6875    0.0000 C   0  0  0  0  0  0  0  0  0  0  0  0
    2.2542   -2.3000    0.0000 C   0  0  0  0  0  0  0  0  0  0  0  0
    1.5500   -2.3000    0.0000 C   0  0  0  0  0  0  0  0  0  0  0  0
    1.2958   -1.3292    0.0000 C   0  0  0  0  0  0  0  0  0  0  0  0
    3.1417   -2.4000    0.0000 C   0  0  0  0  0  0  0  0  0  0  0  0
  2  6  1  0
  3  1  1  0
  4  1  2  0
  5  1  1  0
  6  7  1  0
  7  3  1  0
  8  2  1  0
  9  2  1  0
 10  2  1  0
 11  7  1  0
M  CHG  1   2   1
M  END
> <chembl_id>
CHEMBL1482

> <chembl_pref_name>
BETHANECHOL

$$$$

     RDKit          2D

 12 12  0  0  1  0  0  0  0  0999 V2000
    1.6292   -2.2792    0.0000 C   0  0  0  0  0  0  0  0  0  0  0  0
    2.2500   -2.6417    0.0000 C   0  0  0  0  0  0  0  0  0  0  0  0
    1.0292   -2.6417    0.0000 C   0  0  0  0  0  0  0  0  0  0  0  0
    2.2500   -3.3500    0.0000 C   0  0  0  0  0  0  0  0  0  0  0  0
    1.0250   -3.3542    0.0000 C   0  0  0  0  0  0  0  0  0  0  0  0
    1.6292   -3.7042    0.0000 C   0  0  0  0  0  0  0  0  0  0  0  0
    0.4042   -2.3000    0.0000 C   0  0  0  0  0  0  0  0  0  0  0  0
    2.8625   -2.2792    0.0000 O   0  0  0  0  0  0  0  0  0  0  0  0
    2.8667   -3.7042    0.0000 O   0  0  0  0  0  0  0  0  0  0  0  0
   -0.8250   -2.3000    0.0000 N   0  0  0  0  0  0  0  0  0  0  0  0
    0.4042   -1.5792    0.0000 O   0  0  0  0  0  0  0  0  0  0  0  0
   -0.2125   -2.6500    0.0000 C   0  0  0  0  0  0  0  0  0  0  0  0
  2  1  2  0
  3  1  1  0
  4  2  1  0
  5  3  2  0
  6  5  1  0
  7  3  1  0
  8  2  1  0
  9  4  1  0
 10 12  1  0
  7 11  1  6
 12  7  1  0
  6  4  2  0
M  END
> <chembl_id>
CHEMBL1437

> <chembl_pref_name>
NOREPINEPHRINE

$$$$

     RDKit          2D

 20 20  0  0  0  0  0  0  0  0999 V2000
    0.0000    0.0000    0.0000 Cl  0  0  0  0  0  0  0  0  0  0  0  0
    2.7679    0.5000    0.0000 C   0  0  0  0  0  0  0  0  0  0  0  0
    4.5000    0.5000    0.0000 C   0  0  0  0  0  0  0  0  0  0  0  0
    0.5000    5.2321    0.0000 C   0  0  0  0  0  0  0  0  0  0  0  0
    6.2321    2.5000    0.0000 C   0  0  0  0  0  0  0  0  0  0  0  0
    6.2321    3.5000    0.0000 C   0  0  0  0  0  0  0  0  0  0  0  0
    2.0000    2.6340    0.0000 C   0  0  0  0  0  0  0  0  0  0  0  0
    5.3660    2.0000    0.0000 C   0  0  0  0  0  0  0  0  0  0  0  0
    3.0000    2.6340    0.0000 C   0  0  0  0  0  0  0  0  0  0  0  0
    1.5000    3.5000    0.0000 C   0  0  0  0  0  0  0  0  0  0  0  0
    5.3660    4.0000    0.0000 C   0  0  0  0  0  0  0  0  0  0  0  0
    3.0000    4.3660    0.0000 C   0  0  0  0  0  0  0  0  0  0  0  0
    3.6340    2.0000    0.0000 C   0  0  0  0  0  0  0  0  0  0  0  0
    3.5000    3.5000    0.0000 C   0  0  0  0  0  0  0  0  0  0  0  0
    4.5000    2.5000    0.0000 C   0  0  0  0  0  0  0  0  0  0  0  0
    2.0000    4.3660    0.0000 C   0  0  0  0  0  0  0  0  0  0  0  0
    4.5000    3.5000    0.0000 C   0  0  0  0  0  0  0  0  0  0  0  0
    3.6340    1.0000    0.0000 N   0  0  0  0  0  0  0  0  0  0  0  0
    4.0000    4.3660    0.0000 O   0  0  0  0  0  0  0  0  0  0  0  0
    1.5000    5.2321    0.0000 O   0  0  0  0  0  0  0  0  0  0  0  0
  2 18  1  0
  3 18  1  0
  4 20  1  0
  5  6  1  0
  5  8  1  0
  6 11  1  0
  7  9  2  0
  7 10  1  0
  8 15  1  0
  9 14  1  0
 10 16  2  0
 11 17  1  0
 12 14  2  0
 12 16  1  0
 13 15  1  0
 13 18  1  0
 14 17  1  0
 15 17  1  0
 16 20  1  0
 17 19  1  0
M  END
> <chembl_id>
CHEMBL1237065

> <chembl_pref_name>
TRAMADOL HYDROCHLORIDE

$$$$

     RDKit          2D

  2  0  0  0  0  0  0  0  0  0999 V2000
    2.2417   -5.7792    0.0000 K   0  0  0  0  0 15  0  0  0  0  0  0
    3.3042   -5.7417    0.0000 I   0  0  0  0  0  0  0  0  0  0  0  0
M  CHG  2   1   1   2  -1
M  END
> <chembl_id>
CHEMBL1141

> <chembl_pref_name>
POTASSIUM IODIDE

$$$$

     RDKit          2D

  9  7  0  0  0  0  0  0  0  0999 V2000
    5.0875   -4.6875    0.0000 Cl  0  0  0  0  0  0  0  0  0  0  0  0
    5.1167   -5.6292    0.0000 N   0  0  0  0  0  0  0  0  0  0  0  0
    6.9542   -5.2792    0.0000 Cl  0  0  0  0  0  0  0  0  0  0  0  0
    3.2667   -5.2792    0.0000 Cl  0  0  0  0  0  0  0  0  0  0  0  0
    5.7167   -5.2792    0.0000 C   0  0  0  0  0  0  0  0  0  0  0  0
    4.5000   -5.2792    0.0000 C   0  0  0  0  0  0  0  0  0  0  0  0
    5.1167   -6.3417    0.0000 C   0  0  0  0  0  0  0  0  0  0  0  0
    6.3417   -5.6292    0.0000 C   0  0  0  0  0  0  0  0  0  0  0  0
    3.8792   -5.6292    0.0000 C   0  0  0  0  0  0  0  0  0  0  0  0
  3  8  1  0
  4  9  1  0
  5  2  1  0
  6  2  1  0
  7  2  1  0
  8  5  1  0
  9  6  1  0
M  END
> <chembl_id>
CHEMBL1201001

> <chembl_pref_name>
MECHLORETHAMINE HYDROCHLORIDE

$$$$

     RDKit          2D

 17 18  0  0  0  0  0  0  0  0999 V2000
    3.0792    0.2375    0.0000 S   0  0  0  0  0  0  0  0  0  0  0  0
   -3.0000    0.1958    0.0000 S   0  0  0  0  0  0  0  0  0  0  0  0
   -3.0000   -0.9792    0.0000 N   0  0  0  0  0  0  0  0  0  0  0  0
    3.0792   -0.9167    0.0000 N   0  0  0  0  0  0  0  0  0  0  0  0
    1.0542   -0.9500    0.0000 N   0  0  0  0  0  0  0  0  0  0  0  0
   -0.9625   -0.9500    0.0000 N   0  0  0  0  0  0  0  0  0  0  0  0
    2.0542    0.8208    0.0000 C   0  0  0  0  0  0  0  0  0  0  0  0
   -1.9708    0.8208    0.0000 C   0  0  0  0  0  0  0  0  0  0  0  0
   -1.9750   -1.5542    0.0000 C   0  0  0  0  0  0  0  0  0  0  0  0
    2.0667   -1.5292    0.0000 C   0  0  0  0  0  0  0  0  0  0  0  0
    0.0167   -1.5167    0.0000 C   0  0  0  0  0  0  0  0  0  0  0  0
    4.2167   -0.0500    0.0000 O   0  0  0  0  0  0  0  0  0  0  0  0
    3.3875    1.3833    0.0000 O   0  0  0  0  0  0  0  0  0  0  0  0
   -3.4833    1.2500    0.0000 O   0  0  0  0  0  0  0  0  0  0  0  0
   -4.1208   -0.0500    0.0000 O   0  0  0  0  0  0  0  0  0  0  0  0
    1.0667    0.2083    0.0000 C   0  0  0  0  0  0  0  0  0  0  0  0
   -0.9625    0.2208    0.0000 C   0  0  0  0  0  0  0  0  0  0  0  0
  2  8  1  0
  3  9  1  0
  4  1  1  0
  5 16  1  0
  6 11  1  0
  7  1  1  0
  8 17  1  0
  9  6  1  0
 10  4  1  0
 11  5  1  0
 12  1  2  0
 13  1  2  0
 14  2  2  0
 15  2  2  0
 16  7  1  0
 17  6  1  0
 10  5  1  0
  3  2  1  0
M  END
> <chembl_id>
CHEMBL2105420

> <chembl_pref_name>
TAUROLIDINE

$$$$

     RDKit          2D

 19 21  0  0  0  0  0  0  0  0999 V2000
    1.9344    0.7527    0.0000 C   0  0  0  0  0  0  0  0  0  0  0  0
    0.5054    0.7527    0.0000 C   0  0  0  0  0  0  0  0  0  0  0  0
    0.5054    1.5777    0.0000 C   0  0  0  0  0  0  0  0  0  0  0  0
    1.2199    1.9902    0.0000 C   0  0  0  0  0  0  0  0  0  0  0  0
   -0.7641    1.1652    0.0000 C   0  0  0  0  0  0  0  0  0  0  0  0
    2.6488    0.3402    0.0000 Cl  0  0  0  0  0  0  0  0  0  0  0  0
    1.2199    0.3402    0.0000 N   0  0  0  0  0  0  0  0  0  0  0  0
   -0.2792    0.4978    0.0000 N   0  0  0  0  0  0  0  0  0  0  0  0
   -0.2792    1.8327    0.0000 N   0  0  0  0  0  0  0  0  0  0  0  0
    1.2199    2.8152    0.0000 N   0  0  0  0  0  0  0  0  0  0  0  0
    1.9344    1.5777    0.0000 N   0  0  0  0  0  0  0  0  0  0  0  0
   -0.5341   -0.2868    0.0000 C   0  0  0  0  0  0  0  0  0  0  0  0
   -0.0492   -0.9543    0.0000 C   0  0  0  0  0  0  0  0  0  0  0  0
   -0.5341   -1.6217    0.0000 C   0  0  0  0  0  0  0  0  0  0  0  0
   -0.2792   -2.4063    0.0000 O   0  0  0  0  0  0  0  0  0  0  0  0
   -1.3188   -1.3668    0.0000 C   0  0  0  0  0  0  0  0  0  0  0  0
   -1.3188   -0.5418    0.0000 O   0  0  0  0  0  0  0  0  0  0  0  0
   -1.9862   -1.8517    0.0000 C   0  0  0  0  0  0  0  0  0  0  0  0
   -1.9000   -2.6722    0.0000 O   0  0  0  0  0  0  0  0  0  0  0  0
  1  6  1  0
  1  7  2  0
  1 11  1  0
  2  3  2  0
  2  7  1  0
  2  8  1  0
  3  4  1  0
  3  9  1  0
  4 10  1  0
  4 11  2  0
  5  8  1  0
  5  9  2  0
 12  8  1  1
 12 13  1  0
 12 17  1  0
 13 14  1  0
 14 15  1  6
 14 16  1  0
 16 17  1  0
 16 18  1  1
 18 19  1  0
M  END
> <chembl_id>
CHEMBL1619

> <chembl_pref_name>
CLADRIBINE

$$$$

     RDKit          2D

 10 11  0  0  0  0  0  0  0  0999 V2000
    0.2917    0.7475    0.0000 C   0  0  0  0  0  0  0  0  0  0  0  0
    1.7138   -1.2033    0.0000 N   0  0  0  0  0  0  0  0  0  0  0  0
    0.2917   -0.7475    0.0000 C   0  0  0  0  0  0  0  0  0  0  0  0
   -1.0028    1.5132    0.0000 C   0  0  0  0  0  0  0  0  0  0  0  0
    1.7138    1.2033    0.0000 N   0  0  0  0  0  0  0  0  0  0  0  0
   -1.0028   -1.5132    0.0000 N   0  0  0  0  0  0  0  0  0  0  0  0
    2.5889    0.0182    0.0000 C   0  0  0  0  0  0  0  0  0  0  0  0
   -2.3155    0.7475    0.0000 N   0  0  0  0  0  0  0  0  0  0  0  0
   -2.3155   -0.7475    0.0000 C   0  0  0  0  0  0  0  0  0  0  0  0
   -0.9991    2.7132    0.0000 S   0  0  0  0  0  0  0  0  0  0  0  0
  2  3  1  0
  3  1  2  0
  4  1  1  0
  5  1  1  0
  6  3  1  0
  7  5  1  0
  8  4  2  0
  9  8  1  0
 10  4  1  0
  7  2  2  0
  9  6  2  0
M  END
> <chembl_id>
CHEMBL1425

> <chembl_pref_name>
MERCAPTOPURINE

$$$$

     RDKit          2D

 20 12  0  0  0  0  0  0  0  0999 V2000
    5.7455  -20.5071    0.0000 O   0  0  0  0  0  0  0  0  0  0  0  0
    2.4781  -17.4133    0.0000 C   0  0  0  0  0  0  0  0  0  0  0  0
    3.2020  -17.8263    0.0000 C   0  0  0  0  0  0  0  0  0  0  0  0
    1.7639  -17.8263    0.0000 C   0  0  0  0  0  0  0  0  0  0  0  0
    2.0651  -16.6991    0.0000 C   0  0  0  0  0  0  0  0  0  0  0  0
    1.7639  -18.6522    0.0000 C   0  0  0  0  0  0  0  0  0  0  0  0
    3.9162  -17.4133    0.0000 C   0  0  0  0  0  0  0  0  0  0  0  0
    2.4732  -15.9752    0.0000 O   0  0  0  0  0  0  0  0  0  0  0  0
    4.6304  -17.8263    0.0000 O   0  0  0  0  0  0  0  0  0  0  0  0
    1.0498  -19.0652    0.0000 O   0  0  0  0  0  0  0  0  0  0  0  0
    1.2392  -16.7040    0.0000 O   0  0  0  0  0  0  0  0  0  0  0  0
    2.4781  -19.0652    0.0000 O   0  0  0  0  0  0  0  0  0  0  0  0
    3.9162  -16.5874    0.0000 O   0  0  0  0  0  0  0  0  0  0  0  0
    2.8862  -16.6991    0.0000 O   0  0  0  0  0  0  0  0  0  0  0  0
    3.3089  -15.8586    0.0000 Li  0  0  0  0  0 15  0  0  0  0  0  0
    5.3786  -17.8992    0.0000 Li  0  0  0  0  0 15  0  0  0  0  0  0
    0.1753  -19.0652    0.0000 Li  0  0  0  0  0 15  0  0  0  0  0  0
    3.8579  -18.9582    0.0000 O   0  0  0  0  0  0  0  0  0  0  0  0
   -0.3536  -17.2071    0.0000 O   0  0  0  0  0  0  0  0  0  0  0  0
    5.0679  -16.0875    0.0000 O   0  0  0  0  0  0  0  0  0  0  0  0
  3  2  1  0
  4  2  1  0
  5  2  1  0
  6  4  1  0
  7  3  1  0
  8  5  1  0
  9  7  1  0
 10  6  1  0
 11  5  2  0
 12  6  2  0
 13  7  2  0
 14  2  1  0
M  CHG  6   8  -1   9  -1  10  -1  15   1  16   1  17   1
M  END
> <chembl_id>
CHEMBL2103738

> <chembl_pref_name>
LITHIUM CITRATE

$$$$

     RDKit          2D

 21 23  0  0  0  0  0  0  0  0999 V2000
    5.4125   -4.4417    0.0000 C   0  0  0  0  0  0  0  0  0  0  0  0
    4.8500   -4.8667    0.0000 N   0  0  0  0  0  0  0  0  0  0  0  0
    5.1792   -3.7792    0.0000 C   0  0  0  0  0  0  0  0  0  0  0  0
    6.1292   -4.5625    0.0000 C   0  0  0  0  0  0  0  0  0  0  0  0
    4.2875   -4.4625    0.0000 C   0  0  0  0  0  0  0  0  0  0  0  0
    4.4917   -3.7792    0.0000 C   0  0  0  0  0  0  0  0  0  0  0  0
    6.1167   -5.3167    0.0000 C   0  0  0  0  0  0  0  0  0  0  0  0
    6.7167   -5.6625    0.0000 C   0  0  0  0  0  0  0  0  0  0  0  0
    6.5917   -4.0417    0.0000 O   0  0  0  0  0  0  0  0  0  0  0  0
    3.5917   -4.6167    0.0000 C   0  0  0  0  0  0  0  0  0  0  0  0
    6.7167   -6.3750    0.0000 O   0  0  0  0  0  0  0  0  0  0  0  0
    5.6875   -3.2375    0.0000 C   0  0  0  0  0  0  0  0  0  0  0  0
    7.2875   -5.2750    0.0000 O   0  0  0  0  0  0  0  0  0  0  0  0
    6.3667   -3.3792    0.0000 C   0  0  0  0  0  0  0  0  0  0  0  0
    4.0042   -3.2792    0.0000 C   0  0  0  0  0  0  0  0  0  0  0  0
    6.8417   -4.9292    0.0000 C   0  0  0  0  0  0  0  0  0  0  0  0
    3.3250   -3.4292    0.0000 C   0  0  0  0  0  0  0  0  0  0  0  0
    3.1250   -4.0917    0.0000 C   0  0  0  0  0  0  0  0  0  0  0  0
    3.3667   -5.2917    0.0000 C   0  0  0  0  0  0  0  0  0  0  0  0
    7.4625   -4.6875    0.0000 C   0  0  0  0  0  0  0  0  0  0  0  0
    2.6792   -5.4292    0.0000 C   0  0  0  0  0  0  0  0  0  0  0  0
  2  1  1  0
  3  1  2  0
  4  1  1  0
  5  2  1  0
  6  3  1  0
  7  4  1  0
  8  7  1  0
  9  4  1  0
 10  5  1  0
 11  8  2  0
 12  3  1  0
 13  8  1  0
 14  9  1  0
 15  6  1  0
 16  4  1  0
 17 15  2  0
 18 10  2  0
 19 10  1  0
 20 16  1  0
 21 19  1  0
  5  6  2  0
 14 12  1  0
 18 17  1  0
M  END
> <chembl_id>
CHEMBL622

> <chembl_pref_name>
ETODOLAC

$$$$

     RDKit          2D

 11 12  0  0  0  0  0  0  0  0999 V2000
    0.2917   -0.7475    0.0000 C   0  0  0  0  0  0  0  0  0  0  0  0
    0.2917    0.7475    0.0000 C   0  0  0  0  0  0  0  0  0  0  0  0
   -1.0028    1.5132    0.0000 C   0  0  0  0  0  0  0  0  0  0  0  0
    2.5889    0.0182    0.0000 C   0  0  0  0  0  0  0  0  0  0  0  0
   -2.3155    0.7475    0.0000 N   0  0  0  0  0  0  0  0  0  0  0  0
   -3.3560   -1.3452    0.0000 N   0  0  0  0  0  0  0  0  0  0  0  0
   -1.0028   -1.5132    0.0000 N   0  0  0  0  0  0  0  0  0  0  0  0
   -2.3155   -0.7475    0.0000 C   0  0  0  0  0  0  0  0  0  0  0  0
    1.7138   -1.2033    0.0000 N   0  0  0  0  0  0  0  0  0  0  0  0
    1.7138    1.2033    0.0000 N   0  0  0  0  0  0  0  0  0  0  0  0
   -0.9991    2.7132    0.0000 S   0  0  0  0  0  0  0  0  0  0  0  0
  1  2  2  0
  1  7  1  0
  1  9  1  0
  2  3  1  0
  2 10  1  0
  3  5  1  0
  3 11  2  0
  4  9  1  0
  4 10  2  0
  8  5  1  0
  8  6  1  0
  8  7  2  0
M  END
> <chembl_id>
CHEMBL727

> <chembl_pref_name>
THIOGUANINE

$$$$

     RDKit          2D

 14 13  0  0  1  0  0  0  0  0999 V2000
    3.3167    0.3083    0.0000 C   0  0  0  0  0  0  0  0  0  0  0  0
   -3.2708   -0.2292    0.0000 C   0  0  0  0  0  0  0  0  0  0  0  0
   -2.3208    0.3083    0.0000 C   0  0  0  0  0  0  0  0  0  0  0  0
    2.3792   -0.2292    0.0000 C   0  0  0  0  0  0  0  0  0  0  0  0
    3.3167    1.3958    0.0000 O   0  0  0  0  0  0  0  0  0  0  0  0
   -3.2708   -1.3167    0.0000 O   0  0  0  0  0  0  0  0  0  0  0  0
   -1.3833   -0.2292    0.0000 C   0  0  0  0  0  0  0  0  0  0  0  0
    1.4375    0.3083    0.0000 C   0  0  0  0  0  0  0  0  0  0  0  0
   -2.3208    1.3958    0.0000 N   0  0  0  0  0  0  0  0  0  0  0  0
    2.3792   -1.3167    0.0000 N   0  0  0  0  0  0  0  0  0  0  0  0
   -0.4458    0.3083    0.0000 S   0  0  0  0  0  0  0  0  0  0  0  0
    0.5000   -0.2292    0.0000 S   0  0  0  0  0  0  0  0  0  0  0  0
   -4.2083    0.3083    0.0000 O   0  0  0  0  0  0  0  0  0  0  0  0
    4.2625   -0.2292    0.0000 O   0  0  0  0  0  0  0  0  0  0  0  0
  2  3  1  0
  3  7  1  0
  4  1  1  0
  5  1  2  0
  6  2  2  0
  7 11  1  0
  8  4  1  0
  3  9  1  1
  4 10  1  1
 11 12  1  0
 12  8  1  0
 13  2  1  0
 14  1  1  0
M  END
> <chembl_id>
CHEMBL590540

> <chembl_pref_name>
CYSTINE

$$$$

     RDKit          2D

 10  9  0  0  1  0  0  0  0  0999 V2000
    0.5792   -3.5292    0.0000 C   0  0  0  0  0  0  0  0  0  0  0  0
    1.1875   -3.1792    0.0000 C   0  0  0  0  0  0  0  0  0  0  0  0
   -0.0458   -3.1875    0.0000 C   0  0  0  0  0  0  0  0  0  0  0  0
    1.8042   -3.5250    0.0000 C   0  0  0  0  0  0  0  0  0  0  0  0
   -0.0458   -2.4750    0.0000 O   0  0  0  0  0  0  0  0  0  0  0  0
    1.8167   -4.2292    0.0000 O   0  0  0  0  0  0  0  0  0  0  0  0
    0.5875   -4.2417    0.0000 O   0  0  0  0  0  0  0  0  0  0  0  0
    1.1792   -2.4625    0.0000 O   0  0  0  0  0  0  0  0  0  0  0  0
    2.4167   -3.1625    0.0000 O   0  0  0  0  0  0  0  0  0  0  0  0
   -0.6583   -3.5375    0.0000 O   0  0  0  0  0  0  0  0  0  0  0  0
  2  1  1  0
  3  1  1  0
  4  2  1  0
  5  3  2  0
  6  4  2  0
  1  7  1  6
  2  8  1  6
  9  4  1  0
 10  3  1  0
M  END
> <chembl_id>
CHEMBL1200861

> <chembl_pref_name>
TARTARIC ACID

$$$$

     RDKit          2D

 15 16  0  0  0  0  0  0  0  0999 V2000
    4.6917   -3.7542    0.0000 N   0  0  0  0  0  0  0  0  0  0  0  0
    3.9875   -3.7542    0.0000 C   0  0  0  0  0  0  0  0  0  0  0  0
    3.7667   -4.4250    0.0000 C   0  0  0  0  0  0  0  0  0  0  0  0
    4.9167   -4.4250    0.0000 C   0  0  0  0  0  0  0  0  0  0  0  0
    4.3417   -4.8417    0.0000 C   0  0  0  0  0  0  0  0  0  0  0  0
    3.5667   -3.1792    0.0000 O   0  0  0  0  0  0  0  0  0  0  0  0
    5.5917   -4.6417    0.0000 O   0  0  0  0  0  0  0  0  0  0  0  0
    3.1542   -4.7792    0.0000 C   0  0  0  0  0  0  0  0  0  0  0  0
    5.1125   -3.1792    0.0000 C   0  0  0  0  0  0  0  0  0  0  0  0
    3.1542   -4.0667    0.0000 C   0  0  0  0  0  0  0  0  0  0  0  0
    3.1542   -5.4917    0.0000 C   0  0  0  0  0  0  0  0  0  0  0  0
    2.5417   -4.4292    0.0000 C   0  0  0  0  0  0  0  0  0  0  0  0
    2.5417   -5.8500    0.0000 C   0  0  0  0  0  0  0  0  0  0  0  0
    1.9292   -4.7875    0.0000 C   0  0  0  0  0  0  0  0  0  0  0  0
    1.9292   -5.4917    0.0000 C   0  0  0  0  0  0  0  0  0  0  0  0
  2  1  1  0
  3  2  1  0
  4  1  1  0
  5  4  1  0
  6  2  2  0
  7  4  2  0
  8  3  1  0
  9  1  1  0
 10  3  1  0
 11  8  1  0
 12  8  2  0
 13 11  2  0
 14 12  1  0
 15 14  2  0
  3  5  1  0
 13 15  1  0
M  END
> <chembl_id>
CHEMBL697

> <chembl_pref_name>
METHSUXIMIDE

$$$$

     RDKit          2D

 13 12  0  0  0  0  0  0  0  0999 V2000
    1.5833   -5.5958    0.0000 Cl  0  0  0  0  0  0  0  0  0  0  0  0
   -0.7583   -4.6625    0.0000 C   0  0  0  0  0  0  0  0  0  0  0  0
   -1.3708   -4.3208    0.0000 C   0  0  0  0  0  0  0  0  0  0  0  0
   -0.1500   -4.3125    0.0000 C   0  0  0  0  0  0  0  0  0  0  0  0
   -1.9833   -4.6708    0.0000 C   0  0  0  0  0  0  0  0  0  0  0  0
    1.0875   -4.3000    0.0000 N   0  0  0  0  0  0  0  0  0  0  0  0
   -0.1500   -3.6083    0.0000 O   0  0  0  0  0  0  0  0  0  0  0  0
   -2.6083   -4.3250    0.0000 O   0  0  0  0  0  0  0  0  0  0  0  0
   -0.7500   -5.3833    0.0000 C   0  0  0  0  0  0  0  0  0  0  0  0
   -1.3708   -5.7333    0.0000 C   0  0  0  0  0  0  0  0  0  0  0  0
    0.4750   -4.6625    0.0000 C   0  0  0  0  0  0  0  0  0  0  0  0
   -1.9833   -5.3833    0.0000 C   0  0  0  0  0  0  0  0  0  0  0  0
    1.7042   -4.6500    0.0000 C   0  0  0  0  0  0  0  0  0  0  0  0
  3  2  2  0
  4  2  1  0
  5  3  1  0
  6 11  1  0
  4  7  1  1
  8  5  1  0
  9  2  1  0
 10  9  2  0
 11  4  1  0
 12 10  1  0
 13  6  1  0
 12  5  2  0
M  END
> <chembl_id>
CHEMBL1200339

> <chembl_pref_name>
PHENYLEPHRINE HYDROCHLORIDE

$$$$

     RDKit          2D

  5  4  0  0  0  0  0  0  0  0999 V2000
    1.0417   -1.4292    0.0000 P   0  0  0  0  0  0  0  0  0  0  0  0
    1.3917   -0.8042    0.0000 O   0  0  0  0  0  0  0  0  0  0  0  0
    1.6542   -1.7792    0.0000 O   0  0  0  0  0  0  0  0  0  0  0  0
    0.4292   -1.7792    0.0000 O   0  0  0  0  0  0  0  0  0  0  0  0
    0.6875   -0.8042    0.0000 O   0  0  0  0  0  0  0  0  0  0  0  0
  2  1  2  0
  3  1  1  0
  4  1  1  0
  5  1  1  0
M  END
> <chembl_id>
CHEMBL1187

> <chembl_pref_name>
PHOSPHORIC ACID

$$$$

     RDKit          2D

 17 17  0  0  0  0  0  0  0  0999 V2000
    2.1417   -2.8792    0.0000 S   0  0  0  0  0  0  0  0  0  0  0  0
    2.7542   -2.5292    0.0000 N   0  0  0  0  0  0  0  0  0  0  0  0
    3.3792   -2.8792    0.0000 C   0  0  0  0  0  0  0  0  0  0  0  0
    1.4958   -2.5250    0.0000 C   0  0  0  0  0  0  0  0  0  0  0  0
    2.4917   -3.4917    0.0000 O   0  0  0  0  0  0  0  0  0  0  0  0
    1.7792   -3.4917    0.0000 O   0  0  0  0  0  0  0  0  0  0  0  0
    3.3792   -3.5792    0.0000 O   0  0  0  0  0  0  0  0  0  0  0  0
    3.9917   -2.5292    0.0000 N   0  0  0  0  0  0  0  0  0  0  0  0
    0.8917   -2.8708    0.0000 C   0  0  0  0  0  0  0  0  0  0  0  0
    1.4958   -1.8083    0.0000 C   0  0  0  0  0  0  0  0  0  0  0  0
    0.2875   -1.8167    0.0000 C   0  0  0  0  0  0  0  0  0  0  0  0
    0.2833   -2.5083    0.0000 C   0  0  0  0  0  0  0  0  0  0  0  0
    0.8750   -1.4583    0.0000 C   0  0  0  0  0  0  0  0  0  0  0  0
   -0.3583   -1.4792    0.0000 Cl  0  0  0  0  0  0  0  0  0  0  0  0
    4.6042   -2.8792    0.0000 C   0  0  0  0  0  0  0  0  0  0  0  0
    5.2292   -2.5292    0.0000 C   0  0  0  0  0  0  0  0  0  0  0  0
    5.8417   -2.8792    0.0000 C   0  0  0  0  0  0  0  0  0  0  0  0
  2  1  1  0
  3  2  1  0
  4  1  1  0
  5  1  2  0
  6  1  2  0
  7  3  2  0
  8  3  1  0
  9  4  2  0
 10  4  1  0
 11 13  1  0
 12  9  1  0
 13 10  2  0
 14 11  1  0
 15  8  1  0
 16 15  1  0
 17 16  1  0
 12 11  2  0
M  END
> <chembl_id>
CHEMBL498

> <chembl_pref_name>
CHLORPROPAMIDE

$$$$

     RDKit          2D

  7  7  0  0  0  0  0  0  0  0999 V2000
    1.2125    4.2001    0.0000 N   0  0  0  0  0  0  0  0  0  0  0  0
    2.4248    0.7000    0.0000 C   0  0  0  0  0  0  0  0  0  0  0  0
    0.0000    0.7000    0.0000 C   0  0  0  0  0  0  0  0  0  0  0  0
    2.4248    2.1000    0.0000 C   0  0  0  0  0  0  0  0  0  0  0  0
    0.0000    2.1000    0.0000 C   0  0  0  0  0  0  0  0  0  0  0  0
    1.2125    0.0000    0.0000 N   0  0  0  0  0  0  0  0  0  0  0  0
    1.2125    2.8000    0.0000 C   0  0  0  0  0  0  0  0  0  0  0  0
  1  7  1  0
  2  4  1  0
  2  6  2  0
  3  5  2  0
  3  6  1  0
  4  7  2  0
  5  7  1  0
M  END
> <chembl_id>
CHEMBL284348

> <chembl_pref_name>
DALFAMPRIDINE

$$$$

     RDKit          2D

 18 18  0  0  0  0  0  0  0  0999 V2000
    4.5383   -3.2704    0.0000 S   0  0  0  0  0  0  0  0  0  0  0  0
    3.8245   -3.2704    0.0000 C   0  0  0  0  0  0  0  0  0  0  0  0
    4.9038   -3.8980    0.0000 O   0  0  0  0  0  0  0  0  0  0  0  0
    4.9038   -2.6393    0.0000 O   0  0  0  0  0  0  0  0  0  0  0  0
    5.3520   -3.2704    0.0000 O   0  0  0  0  0  0  0  0  0  0  0  0
    0.2786   -2.3654    0.0000 C   0  0  0  0  0  0  0  0  0  0  0  0
    0.9664   -2.5721    0.0000 C   0  0  0  0  0  0  0  0  0  0  0  0
    0.2786   -1.6370    0.0000 C   0  0  0  0  0  0  0  0  0  0  0  0
   -0.3417   -2.7217    0.0000 C   0  0  0  0  0  0  0  0  0  0  0  0
    1.3634   -1.9995    0.0000 C   0  0  0  0  0  0  0  0  0  0  0  0
    0.9664   -3.2668    0.0000 N   0  0  0  0  0  0  0  0  0  0  0  0
    0.9629   -1.4336    0.0000 C   0  0  0  0  0  0  0  0  0  0  0  0
   -0.3383   -1.2806    0.0000 C   0  0  0  0  0  0  0  0  0  0  0  0
   -0.9557   -2.3654    0.0000 C   0  0  0  0  0  0  0  0  0  0  0  0
    1.5805   -3.6266    0.0000 C   0  0  0  0  0  0  0  0  0  0  0  0
   -0.9557   -1.6534    0.0000 C   0  0  0  0  0  0  0  0  0  0  0  0
    2.1939   -3.2668    0.0000 C   0  0  0  0  0  0  0  0  0  0  0  0
    2.8072   -2.9147    0.0000 C   0  0  0  0  0  0  0  0  0  0  0  0
  1  2  1  0
  1  3  1  0
  1  4  2  0
  1  5  2  0
  6  8  2  0
  6  9  1  0
  7 10  1  0
  7 11  1  1
  8 12  1  0
  8 13  1  0
  9 14  2  0
 11 15  1  0
 13 16  2  0
 15 17  1  0
 17 18  3  0
 10 12  1  0
 14 16  1  0
  6  7  1  0
M  END
> <chembl_id>
CHEMBL1201142

> <chembl_pref_name>
RASAGILINE MESYLATE

$$$$

     RDKit          2D

 16 16  0  0  0  0  0  0  0  0999 V2000
    7.3487   -9.0781    0.0000 N   0  0  0  0  0  0  0  0  0  0  0  0
    6.6270   -9.5044    0.0000 C   0  0  0  0  0  0  0  0  0  0  0  0
    5.9100   -8.2886    0.0000 C   0  0  0  0  0  0  0  0  0  0  0  0
    5.9148   -9.0879    0.0000 C   0  0  0  0  0  0  0  0  0  0  0  0
    6.6173   -7.8622    0.0000 N   0  0  0  0  0  0  0  0  0  0  0  0
    7.3439   -8.2788    0.0000 C   0  0  0  0  0  0  0  0  0  0  0  0
    8.0753   -7.8817    0.0000 S   0  0  0  0  0  0  0  0  0  0  0  0
    6.6318  -10.3328    0.0000 O   0  0  0  0  0  0  0  0  0  0  0  0
    5.1786   -7.8574    0.0000 O   0  0  0  0  0  0  0  0  0  0  0  0
    5.5176   -9.8193    0.0000 C   0  0  0  0  0  0  0  0  0  0  0  0
    5.0865   -9.1072    0.0000 C   0  0  0  0  0  0  0  0  0  0  0  0
    4.6941   -9.8242    0.0000 C   0  0  0  0  0  0  0  0  0  0  0  0
    5.9294  -10.5412    0.0000 C   0  0  0  0  0  0  0  0  0  0  0  0
    4.6747   -8.4145    0.0000 C   0  0  0  0  0  0  0  0  0  0  0  0
    4.2872  -10.5412    0.0000 C   0  0  0  0  0  0  0  0  0  0  0  0
    3.4637  -10.5459    0.0000 C   0  0  0  0  0  0  0  0  0  0  0  0
  2  1  1  0
  3  4  1  0
  4  2  1  0
  5  6  1  0
  6  1  1  0
  7  6  2  0
  8  2  2  0
  9  3  2  0
 10  4  1  0
 11  4  1  0
 12 10  1  0
 13 10  1  0
 14 11  1  0
 15 12  1  0
 16 15  1  0
  5  3  1  0
M  END
> <chembl_id>
CHEMBL441

> <chembl_pref_name>
THIOPENTAL

$$$$

     RDKit          2D

 16 16  0  0  0  0  0  0  0  0999 V2000
   -0.1833   -0.6625    0.0000 C   0  0  0  0  0  0  0  0  0  0  0  0
   -1.4458   -2.8167    0.0000 N   0  0  0  0  0  0  0  0  0  0  0  0
   -2.6875   -0.6625    0.0000 N   0  0  0  0  0  0  0  0  0  0  0  0
   -0.1833   -2.1042    0.0000 C   0  0  0  0  0  0  0  0  0  0  0  0
   -1.4250    0.0625    0.0000 C   0  0  0  0  0  0  0  0  0  0  0  0
   -2.6875   -2.1042    0.0000 C   0  0  0  0  0  0  0  0  0  0  0  0
    0.5375    0.5875    0.0000 C   0  0  0  0  0  0  0  0  0  0  0  0
   -1.4250    1.5458    0.0000 O   0  0  0  0  0  0  0  0  0  0  0  0
    0.9000   -2.6792    0.0000 O   0  0  0  0  0  0  0  0  0  0  0  0
   -3.9625   -2.8167    0.0000 O   0  0  0  0  0  0  0  0  0  0  0  0
    1.2042   -0.2875    0.0000 C   0  0  0  0  0  0  0  0  0  0  0  0
    1.9792    0.5875    0.0000 C   0  0  0  0  0  0  0  0  0  0  0  0
    2.7000    1.8458    0.0000 C   0  0  0  0  0  0  0  0  0  0  0  0
    2.2167   -1.3042    0.0000 C   0  0  0  0  0  0  0  0  0  0  0  0
    4.1375    1.8458    0.0000 C   0  0  0  0  0  0  0  0  0  0  0  0
    1.9750    3.0875    0.0000 C   0  0  0  0  0  0  0  0  0  0  0  0
  2  4  1  0
  3  5  1  0
  4  1  1  0
  5  1  1  0
  6  3  1  0
  7  1  1  0
  8  5  2  0
  9  4  2  0
 10  6  2  0
 11  1  1  0
 12  7  1  0
 13 12  1  0
 14 11  1  0
 15 13  1  0
 16 13  1  0
  2  6  1  0
M  END
> <chembl_id>
CHEMBL267894

> <chembl_pref_name>
AMOBARBITAL

$$$$

     RDKit          2D

 17 16  0  0  0  0  0  0  0  0999 V2000
    0.0917   -4.6667    0.0000 O   0  0  0  0  0  0  0  0  0  0  0  0
    0.7167   -5.0167    0.0000 C   0  0  0  0  0  0  0  0  0  0  0  0
    1.3417   -4.6667    0.0000 C   0  0  0  0  0  0  0  0  0  0  0  0
    9.4250   -5.0167    0.0000 C   0  0  0  0  0  0  0  0  0  0  0  0
    8.8042   -4.6667    0.0000 C   0  0  0  0  0  0  0  0  0  0  0  0
    6.9417   -5.0167    0.0000 C   0  0  0  0  0  0  0  0  0  0  0  0
    3.2042   -5.0167    0.0000 C   0  0  0  0  0  0  0  0  0  0  0  0
    7.5625   -4.6667    0.0000 C   0  0  0  0  0  0  0  0  0  0  0  0
    2.5792   -4.6667    0.0000 C   0  0  0  0  0  0  0  0  0  0  0  0
    8.1792   -5.0167    0.0000 C   0  0  0  0  0  0  0  0  0  0  0  0
    1.9667   -5.0167    0.0000 C   0  0  0  0  0  0  0  0  0  0  0  0
    5.0750   -4.6667    0.0000 C   0  0  0  0  0  0  0  0  0  0  0  0
    5.6917   -5.0167    0.0000 C   0  0  0  0  0  0  0  0  0  0  0  0
    4.4542   -5.0167    0.0000 C   0  0  0  0  0  0  0  0  0  0  0  0
    6.3125   -4.6667    0.0000 C   0  0  0  0  0  0  0  0  0  0  0  0
    3.8292   -4.6667    0.0000 C   0  0  0  0  0  0  0  0  0  0  0  0
   10.0542   -4.6667    0.0000 C   0  0  0  0  0  0  0  0  0  0  0  0
  2  1  1  0
  3  2  1  0
  4  5  1  0
  5 10  1  0
  6 15  1  0
  7  9  1  0
  8  6  1  0
  9 11  1  0
 10  8  1  0
 11  3  1  0
 12 14  1  0
 13 12  1  0
 14 16  1  0
 15 13  1  0
 16  7  1  0
 17  4  1  0
M  END
> <chembl_id>
CHEMBL706

> <chembl_pref_name>
CETYL ALCOHOL

$$$$

     RDKit          2D

 22 25  0  0  0  0  0  0  0  0999 V2000
   -2.6333    0.2625    0.0000 C   0  0  0  0  0  0  0  0  0  0  0  0
   -1.7708   -0.2167    0.0000 N   0  0  0  0  0  0  0  0  0  0  0  0
   -0.0708   -1.2250    0.0000 N   0  0  0  0  0  0  0  0  0  0  0  0
    2.6000    0.1958    0.0000 C   0  0  0  0  0  0  0  0  0  0  0  0
   -3.4875   -0.2167    0.0000 N   0  0  0  0  0  0  0  0  0  0  0  0
   -2.6333    1.2625    0.0000 N   0  0  0  0  0  0  0  0  0  0  0  0
    3.3417   -0.3250    0.0000 C   0  0  0  0  0  0  0  0  0  0  0  0
    2.7292    1.1750    0.0000 O   0  0  0  0  0  0  0  0  0  0  0  0
    4.2292    0.1625    0.0000 O   0  0  0  0  0  0  0  0  0  0  0  0
    3.8250    1.2625    0.0000 C   0  0  0  0  0  0  0  0  0  0  0  0
    1.6542   -0.2667    0.0000 C   0  0  0  0  0  0  0  0  0  0  0  0
   -0.9125    0.2750    0.0000 C   0  0  0  0  0  0  0  0  0  0  0  0
   -1.7708   -1.2125    0.0000 C   0  0  0  0  0  0  0  0  0  0  0  0
    1.6542   -1.2667    0.0000 C   0  0  0  0  0  0  0  0  0  0  0  0
    0.7750   -1.7292    0.0000 C   0  0  0  0  0  0  0  0  0  0  0  0
    3.3542   -1.3542    0.0000 C   0  0  0  0  0  0  0  0  0  0  0  0
   -0.0833   -0.2542    0.0000 C   0  0  0  0  0  0  0  0  0  0  0  0
   -0.9458   -1.7042    0.0000 C   0  0  0  0  0  0  0  0  0  0  0  0
    2.4542   -1.7792    0.0000 C   0  0  0  0  0  0  0  0  0  0  0  0
   -4.3458    1.2625    0.0000 C   0  0  0  0  0  0  0  0  0  0  0  0
   -3.4875    1.7833    0.0000 C   0  0  0  0  0  0  0  0  0  0  0  0
   -4.3458    0.2625    0.0000 C   0  0  0  0  0  0  0  0  0  0  0  0
  2  1  1  0
  3 18  1  0
  4 11  2  0
  5  1  1  0
  6  1  2  0
  7 16  2  0
  8  4  1  0
  9  7  1  0
 10  8  1  0
 11 14  1  0
 12  2  1  0
 13  2  1  0
 14 15  1  0
 15  3  1  0
 16 19  1  0
 17 12  1  0
 18 13  1  0
 19 14  2  0
 20 21  2  0
 21  6  1  0
 22  5  2  0
 22 20  1  0
  3 17  1  0
  4  7  1  0
  9 10  1  0
M  END
> <chembl_id>
CHEMBL1371770

> <chembl_pref_name>
PIRIBEDIL

$$$$

     RDKit          2D

 15 15  0  0  0  0  0  0  0  0999 V2000
    4.4542   -4.6917    0.0000 N   0  0  0  0  0  0  0  0  0  0  0  0
    5.6917   -4.6917    0.0000 N   0  0  0  0  0  0  0  0  0  0  0  0
    5.0750   -5.7667    0.0000 N   0  0  0  0  0  0  0  0  0  0  0  0
    4.4542   -5.4000    0.0000 C   0  0  0  0  0  0  0  0  0  0  0  0
    5.6917   -5.4000    0.0000 C   0  0  0  0  0  0  0  0  0  0  0  0
    5.0750   -4.3292    0.0000 C   0  0  0  0  0  0  0  0  0  0  0  0
    5.0750   -3.6167    0.0000 N   0  0  0  0  0  0  0  0  0  0  0  0
    3.8417   -5.7500    0.0000 N   0  0  0  0  0  0  0  0  0  0  0  0
    6.3042   -5.7500    0.0000 N   0  0  0  0  0  0  0  0  0  0  0  0
    5.6792   -3.2625    0.0000 C   0  0  0  0  0  0  0  0  0  0  0  0
    4.4625   -3.2625    0.0000 C   0  0  0  0  0  0  0  0  0  0  0  0
    3.8417   -6.4542    0.0000 C   0  0  0  0  0  0  0  0  0  0  0  0
    3.2292   -5.4000    0.0000 C   0  0  0  0  0  0  0  0  0  0  0  0
    6.9167   -5.3917    0.0000 C   0  0  0  0  0  0  0  0  0  0  0  0
    6.3042   -6.4625    0.0000 C   0  0  0  0  0  0  0  0  0  0  0  0
  2  6  1  0
  3  4  2  0
  4  1  1  0
  5  2  2  0
  6  1  2  0
  7  6  1  0
  8  4  1  0
  9  5  1  0
 10  7  1  0
 11  7  1  0
 12  8  1  0
 13  8  1  0
 14  9  1  0
 15  9  1  0
  5  3  1  0
M  END
> <chembl_id>
CHEMBL1455

> <chembl_pref_name>
ALTRETAMINE

$$$$

     RDKit          2D

 20 22  0  0  0  0  0  0  0  0999 V2000
    4.9042   -3.5667    0.0000 N   0  0  0  0  0  0  0  0  0  0  0  0
    4.4167   -4.2375    0.0000 C   0  0  0  0  0  0  0  0  0  0  0  0
    4.4167   -2.9042    0.0000 C   0  0  0  0  0  0  0  0  0  0  0  0
    3.6292   -3.9792    0.0000 C   0  0  0  0  0  0  0  0  0  0  0  0
    3.6375   -3.1542    0.0000 C   0  0  0  0  0  0  0  0  0  0  0  0
    6.1375   -2.8542    0.0000 C   0  0  0  0  0  0  0  0  0  0  0  0
    6.9667   -2.8667    0.0000 N   0  0  0  0  0  0  0  0  0  0  0  0
    5.7292   -3.5750    0.0000 C   0  0  0  0  0  0  0  0  0  0  0  0
    7.3750   -3.5792    0.0000 C   0  0  0  0  0  0  0  0  0  0  0  0
    4.6750   -5.0250    0.0000 O   0  0  0  0  0  0  0  0  0  0  0  0
    4.6750   -2.1167    0.0000 O   0  0  0  0  0  0  0  0  0  0  0  0
    2.9167   -4.3917    0.0000 C   0  0  0  0  0  0  0  0  0  0  0  0
    6.1375   -4.2917    0.0000 C   0  0  0  0  0  0  0  0  0  0  0  0
    5.7250   -2.1417    0.0000 O   0  0  0  0  0  0  0  0  0  0  0  0
    8.2000   -3.5792    0.0000 O   0  0  0  0  0  0  0  0  0  0  0  0
    6.9542   -4.2917    0.0000 C   0  0  0  0  0  0  0  0  0  0  0  0
    2.9250   -2.7417    0.0000 C   0  0  0  0  0  0  0  0  0  0  0  0
    2.9042   -5.2167    0.0000 N   0  0  0  0  0  0  0  0  0  0  0  0
    2.2125   -3.1542    0.0000 C   0  0  0  0  0  0  0  0  0  0  0  0
    2.2042   -3.9792    0.0000 C   0  0  0  0  0  0  0  0  0  0  0  0
  2  1  1  0
  3  1  1  0
  4  2  1  0
  5  3  1  0
  6  8  1  0
  7  6  1  0
  8  1  1  0
  9 16  1  0
 10  2  2  0
 11  3  2  0
 12  4  2  0
 13  8  1  0
 14  6  2  0
 15  9  2  0
 16 13  1  0
 17  5  2  0
 18 12  1  0
 19 17  1  0
 20 12  1  0
  5  4  1  0
  9  7  1  0
 19 20  2  0
M  END
> <chembl_id>
CHEMBL43452

> <chembl_pref_name>
POMALIDOMIDE

$$$$

     RDKit          2D

 13 14  0  0  0  0  0  0  0  0999 V2000
    4.8417   -5.5542    0.0000 N   0  0  0  0  0  0  0  0  0  0  0  0
    5.4417   -5.1917    0.0000 C   0  0  0  0  0  0  0  0  0  0  0  0
    4.2292   -4.4917    0.0000 N   0  0  0  0  0  0  0  0  0  0  0  0
    4.2292   -5.1917    0.0000 C   0  0  0  0  0  0  0  0  0  0  0  0
    5.4417   -4.4917    0.0000 C   0  0  0  0  0  0  0  0  0  0  0  0
    4.8417   -4.1417    0.0000 C   0  0  0  0  0  0  0  0  0  0  0  0
    6.1292   -5.4167    0.0000 N   0  0  0  0  0  0  0  0  0  0  0  0
    6.1292   -4.2750    0.0000 N   0  0  0  0  0  0  0  0  0  0  0  0
    6.5417   -4.8417    0.0000 C   0  0  0  0  0  0  0  0  0  0  0  0
    3.6042   -5.5542    0.0000 O   0  0  0  0  0  0  0  0  0  0  0  0
    4.8417   -3.4250    0.0000 O   0  0  0  0  0  0  0  0  0  0  0  0
    4.8417   -6.2667    0.0000 C   0  0  0  0  0  0  0  0  0  0  0  0
    3.6042   -4.1417    0.0000 C   0  0  0  0  0  0  0  0  0  0  0  0
  2  1  1  0
  3  4  1  0
  4  1  1  0
  5  2  2  0
  6  3  1  0
  7  2  1  0
  8  5  1  0
  9  7  2  0
 10  4  2  0
 11  6  2  0
 12  1  1  0
 13  3  1  0
  5  6  1  0
  8  9  1  0
M  END
> <chembl_id>
CHEMBL190

> <chembl_pref_name>
THEOPHYLLINE

$$$$

     RDKit          2D

 19 20  0  0  0  0  0  0  0  0999 V2000
    0.2042   -1.0167    0.0000 C   0  0  0  0  0  0  0  0  0  0  0  0
   -0.4083   -1.3667    0.0000 C   0  0  0  0  0  0  0  0  0  0  0  0
    0.8167   -1.3667    0.0000 C   0  0  0  0  0  0  0  0  0  0  0  0
    1.4292   -1.0167    0.0000 C   0  0  0  0  0  0  0  0  0  0  0  0
    2.6542   -1.0167    0.0000 C   0  0  0  0  0  0  0  0  0  0  0  0
    2.0417   -1.3667    0.0000 C   0  0  0  0  0  0  0  0  0  0  0  0
   -0.4083   -2.0792    0.0000 O   0  0  0  0  0  0  0  0  0  0  0  0
   -1.0208   -1.0167    0.0000 C   0  0  0  0  0  0  0  0  0  0  0  0
    2.6542   -0.3042    0.0000 O   0  0  0  0  0  0  0  0  0  0  0  0
    0.8167   -2.0792    0.0000 N   0  0  0  0  0  0  0  0  0  0  0  0
    3.2750   -1.3667    0.0000 N   0  0  0  0  0  0  0  0  0  0  0  0
    0.2042   -0.3042    0.0000 C   0  0  0  0  0  0  0  0  0  0  0  0
    1.4292   -0.3042    0.0000 C   0  0  0  0  0  0  0  0  0  0  0  0
    0.8125    0.0458    0.0000 C   0  0  0  0  0  0  0  0  0  0  0  0
   -1.0208   -0.3042    0.0000 C   0  0  0  0  0  0  0  0  0  0  0  0
   -1.6333   -1.3667    0.0000 C   0  0  0  0  0  0  0  0  0  0  0  0
   -1.6333    0.0458    0.0000 C   0  0  0  0  0  0  0  0  0  0  0  0
   -2.2458   -1.0167    0.0000 C   0  0  0  0  0  0  0  0  0  0  0  0
   -2.2458   -0.3042    0.0000 C   0  0  0  0  0  0  0  0  0  0  0  0
  2  1  1  0
  3  1  2  0
  4  3  1  0
  5  6  1  0
  6  4  1  0
  7  2  2  0
  8  2  1  0
  9  5  2  0
 10  3  1  0
 11  5  1  0
 12  1  1  0
 13 14  1  0
 14 12  2  0
 15  8  1  0
 16  8  2  0
 17 15  2  0
 18 16  1  0
 19 18  2  0
 13  4  2  0
 19 17  1  0
M  END
> <chembl_id>
CHEMBL1021

> <chembl_pref_name>
NEPAFENAC

$$$$

     RDKit          2D

 16 16  0  0  0  0  0  0  0  0999 V2000
    3.0417    0.9833    0.0000 C   0  0  0  0  0  0  0  0  0  0  0  0
    4.2167    0.9833    0.0000 O   0  0  0  0  0  0  0  0  0  0  0  0
    2.4167    1.8333    0.0000 N   0  0  0  0  0  0  0  0  0  0  0  0
    2.4875    0.0000    0.0000 C   0  0  0  0  0  0  0  0  0  0  0  0
    1.3000    0.0000    0.0000 C   0  0  0  0  0  0  0  0  0  0  0  0
   -0.9583    0.0000    0.0000 C   0  0  0  0  0  0  0  0  0  0  0  0
    0.7125    0.9833    0.0000 C   0  0  0  0  0  0  0  0  0  0  0  0
    0.7417   -0.9917    0.0000 C   0  0  0  0  0  0  0  0  0  0  0  0
    2.8792    2.7333    0.0000 O   0  0  0  0  0  0  0  0  0  0  0  0
   -0.4000    0.9833    0.0000 C   0  0  0  0  0  0  0  0  0  0  0  0
   -0.4000   -0.9917    0.0000 C   0  0  0  0  0  0  0  0  0  0  0  0
   -2.3083    0.0000    0.0000 O   0  0  0  0  0  0  0  0  0  0  0  0
   -2.6583   -0.9500    0.0000 C   0  0  0  0  0  0  0  0  0  0  0  0
   -3.7750   -0.9500    0.0000 C   0  0  0  0  0  0  0  0  0  0  0  0
   -4.3458   -1.9167    0.0000 C   0  0  0  0  0  0  0  0  0  0  0  0
   -3.8000   -2.9000    0.0000 C   0  0  0  0  0  0  0  0  0  0  0  0
  2  1  2  0
  3  1  1  0
  4  1  1  0
  5  4  1  0
  6 11  1  0
  7  5  2  0
  8  5  1  0
  9  3  1  0
 10  7  1  0
 11  8  2  0
 12  6  1  0
 13 12  1  0
 14 13  1  0
 15 14  1  0
 16 15  1  0
 10  6  2  0
M  END
> <chembl_id>
CHEMBL94394

> <chembl_pref_name>
BUFEXAMAC

$$$$

     RDKit          2D

 13 13  0  0  0  0  0  0  0  0999 V2000
   -0.0833    0.2458    0.0000 O   0  0  0  0  0  0  0  0  0  0  0  0
   -1.3208   -0.4792    0.0000 C   0  0  0  0  0  0  0  0  0  0  0  0
   -2.5625    0.2250    0.0000 C   0  0  0  0  0  0  0  0  0  0  0  0
    1.1792   -0.4625    0.0000 C   0  0  0  0  0  0  0  0  0  0  0  0
    2.4000    0.2458    0.0000 C   0  0  0  0  0  0  0  0  0  0  0  0
    3.6417   -0.4625    0.0000 O   0  0  0  0  0  0  0  0  0  0  0  0
    1.1792    2.4000    0.0000 O   0  0  0  0  0  0  0  0  0  0  0  0
    2.4000    1.6958    0.0000 C   0  0  0  0  0  0  0  0  0  0  0  0
   -1.3208   -1.9042    0.0000 C   0  0  0  0  0  0  0  0  0  0  0  0
   -2.5625    1.6708    0.0000 C   0  0  0  0  0  0  0  0  0  0  0  0
   -3.8000   -0.4792    0.0000 C   0  0  0  0  0  0  0  0  0  0  0  0
   -2.5625   -2.6167    0.0000 C   0  0  0  0  0  0  0  0  0  0  0  0
   -3.8000   -1.9042    0.0000 C   0  0  0  0  0  0  0  0  0  0  0  0
  2  1  1  0
  3  2  2  0
  4  1  1  0
  5  4  1  0
  6  5  1  0
  7  8  1  0
  8  5  1  0
  9  2  1  0
 10  3  1  0
 11  3  1  0
 12  9  2  0
 13 12  1  0
 11 13  2  0
M  END
> <chembl_id>
CHEMBL229128

> <chembl_pref_name>
MEPHENESIN

$$$$

     RDKit          2D

 10  8  0  0  0  0  0  0  0  0999 V2000
    6.1167   -6.5625    0.0000 Cl  0  0  0  0  0  0  0  0  0  0  0  0
    5.3542   -6.0167    0.0000 C   0  0  0  0  0  0  0  0  0  0  0  0
    4.7500   -5.6750    0.0000 N   0  0  0  0  0  0  0  0  0  0  0  0
    4.1250   -6.0167    0.0000 C   0  0  0  0  0  0  0  0  0  0  0  0
    5.3542   -6.7375    0.0000 N   0  0  0  0  0  0  0  0  0  0  0  0
    5.9750   -5.6625    0.0000 N   0  0  0  0  0  0  0  0  0  0  0  0
    4.0917   -6.7250    0.0000 N   0  0  0  0  0  0  0  0  0  0  0  0
    3.5167   -5.6417    0.0000 N   0  0  0  0  0  0  0  0  0  0  0  0
    6.5917   -6.0250    0.0000 C   0  0  0  0  0  0  0  0  0  0  0  0
    5.9750   -4.9625    0.0000 C   0  0  0  0  0  0  0  0  0  0  0  0
  3  2  1  0
  4  3  1  0
  5  2  2  0
  6  2  1  0
  7  4  2  0
  8  4  1  0
  9  6  1  0
 10  6  1  0
M  END
> <chembl_id>
CHEMBL1703

> <chembl_pref_name>
METFORMIN HYDROCHLORIDE

$$$$

     RDKit          2D

 16 15  0  0  0  0  0  0  0  0999 V2000
    4.4458   -5.4875    0.0000 C   0  0  0  0  0  0  0  0  0  0  0  0
    4.4458   -4.7792    0.0000 O   0  0  0  0  0  0  0  0  0  0  0  0
    5.0583   -5.8417    0.0000 O   0  0  0  0  0  0  0  0  0  0  0  0
    3.8292   -5.8417    0.0000 C   0  0  0  0  0  0  0  0  0  0  0  0
    2.3958   -4.8000    0.0000 S   0  0  0  0  0  0  0  0  0  0  0  0
    1.7833   -5.1583    0.0000 C   0  0  0  0  0  0  0  0  0  0  0  0
    2.7417   -4.1792    0.0000 O   0  0  0  0  0  0  0  0  0  0  0  0
    2.0375   -4.1792    0.0000 O   0  0  0  0  0  0  0  0  0  0  0  0
    3.0083   -5.1542    0.0000 N   0  0  0  0  0  0  0  0  0  0  0  0
    1.7833   -5.8708    0.0000 C   0  0  0  0  0  0  0  0  0  0  0  0
    1.1708   -4.8042    0.0000 C   0  0  0  0  0  0  0  0  0  0  0  0
    0.5583   -5.1625    0.0000 C   0  0  0  0  0  0  0  0  0  0  0  0
    1.1708   -6.2250    0.0000 C   0  0  0  0  0  0  0  0  0  0  0  0
    0.5583   -5.8708    0.0000 C   0  0  0  0  0  0  0  0  0  0  0  0
   -0.6708   -5.8708    0.0000 N   0  0  0  0  0  0  0  0  0  0  0  0
   -0.0542   -6.2250    0.0000 C   0  0  0  0  0  0  0  0  0  0  0  0
  2  1  2  0
  3  1  1  0
  4  1  1  0
  6  5  1  0
  7  5  2  0
  8  5  2  0
  9  5  1  0
 10  6  1  0
 11  6  2  0
 12 11  1  0
 13 10  2  0
 14 12  2  0
 15 16  1  0
 16 14  1  0
 13 14  1  0
M  END
> <chembl_id>
CHEMBL1201161

> <chembl_pref_name>
MAFENIDE ACETATE

$$$$

     RDKit          2D

  9  0  0  0  0  0  0  0  0  0999 V2000
    0.7500   -1.6071    0.0000 O   0  0  0  0  0  0  0  0  0  0  0  0
    2.6026   -0.2990    0.0000 Mg  0  0  0  0  0 15  0  0  0  0  0  0
    2.7496   -1.3822    0.0000 O   0  0  0  0  0  0  0  0  0  0  0  0
    2.3036   -2.6250    0.0000 O   0  0  0  0  0  0  0  0  0  0  0  0
    3.7232   -2.9464    0.0000 O   0  0  0  0  0  0  0  0  0  0  0  0
    3.8839   -0.3750    0.0000 Cl  0  0  0  0  0  0  0  0  0  0  0  0
    1.1786   -0.2946    0.0000 Cl  0  0  0  0  0  0  0  0  0  0  0  0
    4.8750   -1.7946    0.0000 O   0  0  0  0  0  0  0  0  0  0  0  0
    4.8750   -3.4286    0.0000 O   0  0  0  0  0  0  0  0  0  0  0  0
M  CHG  3   2   2   6  -1   7  -1
M  END
> <chembl_id>
CHEMBL3185229

> <chembl_pref_name>
MAGNESIUM CHLORIDE

$$$$

     RDKit          2D

 17 18  0  0  0  0  0  0  0  0999 V2000
   -4.7956   -5.2962    0.0000 C   0  0  0  0  0  0  0  0  0  0  0  0
   -4.7970   -4.4712    0.0000 N   0  0  0  0  0  0  0  0  0  0  0  0
   -4.0813   -4.0554    0.0000 C   0  0  0  0  0  0  0  0  0  0  0  0
   -3.3683   -4.4687    0.0000 C   0  0  0  0  0  0  0  0  0  0  0  0
   -3.3670   -5.2937    0.0000 C   0  0  0  0  0  0  0  0  0  0  0  0
   -4.0784   -5.7053    0.0000 N   0  0  0  0  0  0  0  0  0  0  0  0
   -5.5071   -5.7078    0.0000 O   0  0  0  0  0  0  0  0  0  0  0  0
   -4.7465   -7.0220    0.0000 O   0  0  0  0  0  0  0  0  0  0  0  0
   -4.0770   -6.5303    0.0000 C   0  0  0  0  0  0  0  0  0  0  0  0
   -3.4099   -7.0198    0.0000 C   0  0  0  0  0  0  0  0  0  0  0  0
   -3.6644   -7.8009    0.0000 C   0  0  0  0  0  0  0  0  0  0  0  0
   -4.4894   -7.8023    0.0000 C   0  0  0  0  0  0  0  0  0  0  0  0
   -4.9705   -8.4735    0.0000 C   0  0  0  0  0  0  0  0  0  0  0  0
   -4.6375   -9.2276    0.0000 O   0  0  0  0  0  0  0  0  0  0  0  0
   -4.0828   -3.2366    0.0000 N   0  0  0  0  0  0  0  0  0  0  0  0
   -2.6250   -6.7665    0.0000 O   0  0  0  0  0  0  0  0  0  0  0  0
   -3.1764   -8.4680    0.0000 O   0  0  0  0  0  0  0  0  0  0  0  0
  2  3  2  0
  3  4  1  0
  4  5  2  0
  5  6  1  0
  1  6  1  0
  1  7  2  0
  8  9  1  0
  9 10  1  0
 10 11  1  0
 11 12  1  0
  8 12  1  0
 13 14  1  0
 12 13  1  1
  9  6  1  1
  3 15  1  0
 10 16  1  1
  1  2  1  0
 11 17  1  6
M  END
> <chembl_id>
CHEMBL803

> <chembl_pref_name>
CYTARABINE

$$$$

     RDKit          2D

 15 15  0  0  0  0  0  0  0  0999 V2000
    5.3792   -4.6625    0.0000 N   0  0  0  0  0  0  0  0  0  0  0  0
    4.7542   -5.0167    0.0000 C   0  0  0  0  0  0  0  0  0  0  0  0
    6.0000   -5.0000    0.0000 C   0  0  0  0  0  0  0  0  0  0  0  0
    4.1375   -4.6667    0.0000 C   0  0  0  0  0  0  0  0  0  0  0  0
    4.7417   -5.7292    0.0000 O   0  0  0  0  0  0  0  0  0  0  0  0
    6.0125   -5.7250    0.0000 C   0  0  0  0  0  0  0  0  0  0  0  0
    3.5167   -5.0292    0.0000 C   0  0  0  0  0  0  0  0  0  0  0  0
    5.3792   -3.9417    0.0000 C   0  0  0  0  0  0  0  0  0  0  0  0
    6.6000   -4.6292    0.0000 C   0  0  0  0  0  0  0  0  0  0  0  0
    5.4167   -6.0917    0.0000 C   0  0  0  0  0  0  0  0  0  0  0  0
    6.6542   -6.0417    0.0000 C   0  0  0  0  0  0  0  0  0  0  0  0
    2.9000   -4.6917    0.0000 C   0  0  0  0  0  0  0  0  0  0  0  0
    5.9792   -3.5917    0.0000 C   0  0  0  0  0  0  0  0  0  0  0  0
    7.2375   -4.9625    0.0000 C   0  0  0  0  0  0  0  0  0  0  0  0
    7.2417   -5.6750    0.0000 C   0  0  0  0  0  0  0  0  0  0  0  0
  2  1  1  0
  3  1  1  0
  4  2  1  0
  5  2  2  0
  6  3  2  0
  7  4  2  0
  8  1  1  0
  9  3  1  0
 10  6  1  0
 11  6  1  0
 12  7  1  0
 13  8  1  0
 14  9  2  0
 15 14  1  0
 15 11  2  0
M  END
> <chembl_id>
CHEMBL1200709

> <chembl_pref_name>
CROTAMITON

$$$$

     RDKit          2D

 15 17  0  0  0  0  0  0  0  0999 V2000
    5.7167   -6.1000    0.0000 C   0  0  0  0  0  0  0  0  0  0  0  0
    5.0917   -6.4542    0.0000 C   0  0  0  0  0  0  0  0  0  0  0  0
    4.4917   -6.0917    0.0000 C   0  0  0  0  0  0  0  0  0  0  0  0
    5.9292   -5.4250    0.0000 N   0  0  0  0  0  0  0  0  0  0  0  0
    6.2917   -6.5167    0.0000 N   0  0  0  0  0  0  0  0  0  0  0  0
    3.8667   -6.4417    0.0000 C   0  0  0  0  0  0  0  0  0  0  0  0
    5.0917   -7.1625    0.0000 C   0  0  0  0  0  0  0  0  0  0  0  0
    6.6417   -5.4292    0.0000 C   0  0  0  0  0  0  0  0  0  0  0  0
    4.4917   -5.3917    0.0000 C   0  0  0  0  0  0  0  0  0  0  0  0
    6.8667   -6.0917    0.0000 C   0  0  0  0  0  0  0  0  0  0  0  0
    4.4750   -7.5167    0.0000 C   0  0  0  0  0  0  0  0  0  0  0  0
    3.8667   -7.1542    0.0000 C   0  0  0  0  0  0  0  0  0  0  0  0
    3.2542   -6.0792    0.0000 C   0  0  0  0  0  0  0  0  0  0  0  0
    3.8792   -5.0250    0.0000 C   0  0  0  0  0  0  0  0  0  0  0  0
    3.2625   -5.3792    0.0000 C   0  0  0  0  0  0  0  0  0  0  0  0
  2  1  1  0
  3  2  1  0
  4  1  2  0
  5  1  1  0
  6  3  1  0
  7  2  1  0
  8  4  1  0
  9  3  2  0
 10  5  1  0
 11  7  1  0
 12 11  1  0
 13  6  2  0
 14  9  1  0
 15 14  2  0
  8 10  1  0
 12  6  1  0
 15 13  1  0
M  END
> <chembl_id>
CHEMBL1266

> <chembl_pref_name>
TETRAHYDROZOLINE

$$$$

     RDKit          2D

 13 13  0  0  0  0  0  0  0  0999 V2000
   -1.1333   -1.9042    0.0000 Cl  0  0  0  0  0  0  0  0  0  0  0  0
   -0.1208   -0.9500    0.0000 C   0  0  0  0  0  0  0  0  0  0  0  0
    0.1000   -0.2792    0.0000 N   0  0  0  0  0  0  0  0  0  0  0  0
    0.4500   -1.3667    0.0000 N   0  0  0  0  0  0  0  0  0  0  0  0
   -0.7250   -1.3250    0.0000 C   0  0  0  0  0  0  0  0  0  0  0  0
   -1.3458   -0.9917    0.0000 C   0  0  0  0  0  0  0  0  0  0  0  0
    0.8125   -0.2875    0.0000 C   0  0  0  0  0  0  0  0  0  0  0  0
    1.0250   -0.9542    0.0000 C   0  0  0  0  0  0  0  0  0  0  0  0
   -1.9458   -1.3625    0.0000 C   0  0  0  0  0  0  0  0  0  0  0  0
   -1.3625   -0.2792    0.0000 C   0  0  0  0  0  0  0  0  0  0  0  0
   -1.9958    0.0500    0.0000 C   0  0  0  0  0  0  0  0  0  0  0  0
   -2.5708   -1.0250    0.0000 C   0  0  0  0  0  0  0  0  0  0  0  0
   -2.5958   -0.3125    0.0000 C   0  0  0  0  0  0  0  0  0  0  0  0
  3  2  2  0
  4  2  1  0
  5  2  1  0
  6  5  1  0
  7  3  1  0
  8  4  1  0
  9  6  1  0
 10  6  2  0
 11 10  1  0
 12  9  2  0
 13 12  1  0
  7  8  1  0
 13 11  2  0
M  END
> <chembl_id>
CHEMBL1689

> <chembl_pref_name>
TOLAZOLINE HYDROCHLORIDE

$$$$

     RDKit          2D

 14 11  0  0  0  0  0  0  0  0999 V2000
   12.2866   -0.2357    0.0000 O   0  0  0  0  0  0  0  0  0  0  0  0
   10.2054    2.2048    0.0000 C   0  0  0  0  0  0  0  0  0  0  0  0
   10.9370    2.6193    0.0000 C   0  0  0  0  0  0  0  0  0  0  0  0
   10.1908    1.3854    0.0000 C   0  0  0  0  0  0  0  0  0  0  0  0
    9.4885    2.6340    0.0000 C   0  0  0  0  0  0  0  0  0  0  0  0
    9.4739    0.9806    0.0000 C   0  0  0  0  0  0  0  0  0  0  0  0
   11.6539    2.2048    0.0000 O   0  0  0  0  0  0  0  0  0  0  0  0
   10.9516    3.4484    0.0000 O   0  0  0  0  0  0  0  0  0  0  0  0
    8.7666    1.4000    0.0000 C   0  0  0  0  0  0  0  0  0  0  0  0
   10.9077    0.9514    0.0000 O   0  0  0  0  0  0  0  0  0  0  0  0
    8.7716    2.2243    0.0000 C   0  0  0  0  0  0  0  0  0  0  0  0
    8.0351    0.9806    0.0000 N   0  0  0  0  0  0  0  0  0  0  0  0
   12.4440    2.1950    0.0000 Na  0  0  0  0  0 15  0  0  0  0  0  0
   12.6196    0.9026    0.0000 O   0  0  0  0  0  0  0  0  0  0  0  0
  3  2  1  0
  4  2  2  0
  5  2  1  0
  6  4  1  0
  7  3  1  0
  8  3  2  0
  9 11  1  0
 10  4  1  0
 11  5  2  0
 12  9  1  0
  6  9  2  0
M  CHG  2   7  -1  13   1
M  END
> <chembl_id>
CHEMBL2096646

> <chembl_pref_name>
AMINOSALICYLATE SODIUM

$$$$

     RDKit          2D

 15 15  0  0  0  0  0  0  0  0999 V2000
    4.3167   -3.8375    0.0000 N   0  0  0  0  0  0  0  0  0  0  0  0
    2.4750   -4.1917    0.0000 C   0  0  0  0  0  0  0  0  0  0  0  0
    4.9000   -4.1667    0.0000 C   0  0  0  0  0  0  0  0  0  0  0  0
    3.7042   -4.1917    0.0000 C   0  0  0  0  0  0  0  0  0  0  0  0
    3.0917   -3.8375    0.0000 C   0  0  0  0  0  0  0  0  0  0  0  0
    4.9000   -4.9042    0.0000 N   0  0  0  0  0  0  0  0  0  0  0  0
    2.4750   -4.9042    0.0000 C   0  0  0  0  0  0  0  0  0  0  0  0
    1.8542   -3.8375    0.0000 C   0  0  0  0  0  0  0  0  0  0  0  0
    3.7125   -4.8917    0.0000 O   0  0  0  0  0  0  0  0  0  0  0  0
    5.4792   -3.7667    0.0000 N   0  0  0  0  0  0  0  0  0  0  0  0
    1.8542   -3.1292    0.0000 Cl  0  0  0  0  0  0  0  0  0  0  0  0
    3.0917   -5.2667    0.0000 Cl  0  0  0  0  0  0  0  0  0  0  0  0
    1.2417   -4.9042    0.0000 C   0  0  0  0  0  0  0  0  0  0  0  0
    1.8542   -5.2667    0.0000 C   0  0  0  0  0  0  0  0  0  0  0  0
    1.2417   -4.1917    0.0000 C   0  0  0  0  0  0  0  0  0  0  0  0
  2  5  1  0
  3  1  1  0
  4  1  1  0
  5  4  1  0
  6  3  2  0
  7  2  2  0
  8  2  1  0
  9  4  2  0
 10  3  1  0
 11  8  1  0
 12  7  1  0
 13 15  1  0
 14  7  1  0
 15  8  2  0
 13 14  2  0
M  END
> <chembl_id>
CHEMBL862

> <chembl_pref_name>
GUANFACINE

$$$$

     RDKit          2D

  7  6  0  0  0  0  0  0  0  0999 V2000
    2.6375   -3.7667    0.0000 P   0  0  0  0  0  0  0  0  0  0  0  0
    2.0250   -4.1250    0.0000 C   0  0  0  0  0  0  0  0  0  0  0  0
    3.2500   -4.1250    0.0000 O   0  0  0  0  0  0  0  0  0  0  0  0
    2.9875   -3.1500    0.0000 O   0  0  0  0  0  0  0  0  0  0  0  0
    2.2792   -3.1500    0.0000 O   0  0  0  0  0  0  0  0  0  0  0  0
    1.4083   -3.7667    0.0000 O   0  0  0  0  0  0  0  0  0  0  0  0
    2.0250   -4.8292    0.0000 O   0  0  0  0  0  0  0  0  0  0  0  0
  2  1  1  0
  3  1  1  0
  4  1  1  0
  5  1  2  0
  6  2  1  0
  7  2  2  0
M  END
> <chembl_id>
CHEMBL666

> <chembl_pref_name>
FOSCARNET

$$$$

     RDKit          2D

 20 20  0  0  0  0  0  0  0  0999 V2000
    5.7125   -1.0625    0.0000 Cl  0  0  0  0  0  0  0  0  0  0  0  0
    3.2375   -1.9750    0.0000 C   0  0  0  0  0  0  0  0  0  0  0  0
    3.8542   -2.3292    0.0000 O   0  0  0  0  0  0  0  0  0  0  0  0
    3.2292   -1.2792    0.0000 O   0  0  0  0  0  0  0  0  0  0  0  0
    2.6250   -2.3417    0.0000 C   0  0  0  0  0  0  0  0  0  0  0  0
    5.7000   -1.9417    0.0000 N   0  0  0  0  0  0  0  0  0  0  0  0
    5.0875   -2.3167    0.0000 C   0  0  0  0  0  0  0  0  0  0  0  0
    4.4667   -1.9625    0.0000 C   0  0  0  0  0  0  0  0  0  0  0  0
    6.3042   -2.3125    0.0000 C   0  0  0  0  0  0  0  0  0  0  0  0
    2.0042   -1.9917    0.0000 C   0  0  0  0  0  0  0  0  0  0  0  0
    2.6292   -3.0417    0.0000 C   0  0  0  0  0  0  0  0  0  0  0  0
    6.9167   -1.9542    0.0000 C   0  0  0  0  0  0  0  0  0  0  0  0
    6.3000   -3.0292    0.0000 C   0  0  0  0  0  0  0  0  0  0  0  0
    4.4542   -1.2625    0.0000 C   0  0  0  0  0  0  0  0  0  0  0  0
    1.3917   -2.3542    0.0000 C   0  0  0  0  0  0  0  0  0  0  0  0
    2.0250   -3.4125    0.0000 C   0  0  0  0  0  0  0  0  0  0  0  0
    6.9042   -3.3917    0.0000 C   0  0  0  0  0  0  0  0  0  0  0  0
    7.5250   -2.3250    0.0000 C   0  0  0  0  0  0  0  0  0  0  0  0
    1.4042   -3.0542    0.0000 C   0  0  0  0  0  0  0  0  0  0  0  0
    7.5167   -3.0417    0.0000 C   0  0  0  0  0  0  0  0  0  0  0  0
  3  2  1  0
  4  2  2  0
  5  2  1  0
  6  7  1  0
  7  8  1  0
  8  3  1  0
  9  6  1  0
 10  5  2  0
 11  5  1  0
 12  9  1  0
 13  9  1  0
 14  8  1  0
 15 10  1  0
 16 11  2  0
 17 13  1  0
 18 12  1  0
 19 15  2  0
 20 18  1  0
 19 16  1  0
 20 17  1  0
M  END
> <chembl_id>
CHEMBL1200715

> <chembl_pref_name>
HEXYLCAINE HYDROCHLORIDE

$$$$

     RDKit          2D

 17 17  0  0  0  0  0  0  0  0999 V2000
    4.0042   -0.1750    0.0000 Cl  0  0  0  0  0  0  0  0  0  0  0  0
   -2.2333    0.0375    0.0000 C   0  0  0  0  0  0  0  0  0  0  0  0
   -1.1625    0.6375    0.0000 O   0  0  0  0  0  0  0  0  0  0  0  0
    0.9417    0.6208    0.0000 C   0  0  0  0  0  0  0  0  0  0  0  0
    1.9875   -0.0917    0.0000 N   0  0  0  0  0  0  0  0  0  0  0  0
   -0.1083    0.0333    0.0000 C   0  0  0  0  0  0  0  0  0  0  0  0
    1.3542    1.8083    0.0000 N   0  0  0  0  0  0  0  0  0  0  0  0
   -2.2333   -1.1875    0.0000 C   0  0  0  0  0  0  0  0  0  0  0  0
   -3.2958    0.6583    0.0000 C   0  0  0  0  0  0  0  0  0  0  0  0
   -3.2958    1.8750    0.0000 Cl  0  0  0  0  0  0  0  0  0  0  0  0
   -1.1625   -1.7875    0.0000 Cl  0  0  0  0  0  0  0  0  0  0  0  0
    2.9917    0.6208    0.0000 C   0  0  0  0  0  0  0  0  0  0  0  0
    2.5750    1.8083    0.0000 C   0  0  0  0  0  0  0  0  0  0  0  0
   -4.3458   -1.1875    0.0000 C   0  0  0  0  0  0  0  0  0  0  0  0
   -4.3458    0.0375    0.0000 C   0  0  0  0  0  0  0  0  0  0  0  0
   -3.2958   -1.8125    0.0000 C   0  0  0  0  0  0  0  0  0  0  0  0
   -0.1083   -1.1875    0.0000 C   0  0  0  0  0  0  0  0  0  0  0  0
  3  2  1  0
  4  6  1  0
  5  4  2  0
  6  3  1  0
  7  4  1  0
  8  2  1  0
  9  2  2  0
 10  9  1  0
 11  8  1  0
 12  5  1  0
 13  7  1  0
 14 15  2  0
 15  9  1  0
 16  8  2  0
 17  6  1  0
 16 14  1  0
 13 12  1  0
M  END
> <chembl_id>
CHEMBL1788132

> <chembl_pref_name>
LOFEXIDINE HYDROCHLORIDE

$$$$

     RDKit          2D

  6  4  0  0  0  0  0  0  0  0999 V2000
    3.8667   -3.6250    0.0000 K   0  0  0  0  0 15  0  0  0  0  0  0
    2.6083   -4.2667    0.0000 P   0  0  0  0  0  0  0  0  0  0  0  0
    2.9542   -3.6500    0.0000 O   0  0  0  0  0  0  0  0  0  0  0  0
    2.2500   -3.6500    0.0000 O   0  0  0  0  0  0  0  0  0  0  0  0
    1.9917   -4.6250    0.0000 O   0  0  0  0  0  0  0  0  0  0  0  0
    3.2208   -4.6250    0.0000 O   0  0  0  0  0  0  0  0  0  0  0  0
  3  2  1  0
  4  2  2  0
  5  2  1  0
  6  2  1  0
M  CHG  2   1   1   3  -1
M  END
> <chembl_id>
CHEMBL1200925

> <chembl_pref_name>
POTASSIUM PHOSPHATE, MONOBASIC

$$$$

     RDKit          2D

 10 10  0  0  0  0  0  0  0  0999 V2000
    0.0000   -0.4125    0.0000 C   0  0  0  0  0  0  0  0  0  0  0  0
    0.7125    0.0000    0.0000 C   0  0  0  0  0  0  0  0  0  0  0  0
    0.7125    0.8250    0.0000 N   0  0  0  0  0  0  0  0  0  0  0  0
   -0.7167    0.8250    0.0000 C   0  0  0  0  0  0  0  0  0  0  0  0
   -0.7167    0.0000    0.0000 C   0  0  0  0  0  0  0  0  0  0  0  0
    0.0000    1.2375    0.0000 C   0  0  0  0  0  0  0  0  0  0  0  0
   -1.4292   -0.4125    0.0000 O   0  0  0  0  0  0  0  0  0  0  0  0
    0.0000   -1.2375    0.0000 O   0  0  0  0  0  0  0  0  0  0  0  0
    1.4250   -0.4125    0.0000 C   0  0  0  0  0  0  0  0  0  0  0  0
    1.4250    1.2375    0.0000 C   0  0  0  0  0  0  0  0  0  0  0  0
  2  1  2  0
  3  2  1  0
  4  5  1  0
  5  1  1  0
  6  4  2  0
  7  5  2  0
  8  1  1  0
  9  2  1  0
 10  3  1  0
  3  6  1  0
M  END
> <chembl_id>
CHEMBL70927

> <chembl_pref_name>
DEFERIPRONE

$$$$

     RDKit          2D

 19 21  0  0  0  0  0  0  0  0999 V2000
    4.7542   -7.2417    0.0000 C   0  0  0  0  0  0  0  0  0  0  0  0
    4.0375   -7.2417    0.0000 N   0  0  0  0  0  0  0  0  0  0  0  0
    4.9792   -6.5667    0.0000 C   0  0  0  0  0  0  0  0  0  0  0  0
    3.8167   -6.5625    0.0000 C   0  0  0  0  0  0  0  0  0  0  0  0
    4.4042   -6.1542    0.0000 N   0  0  0  0  0  0  0  0  0  0  0  0
    5.1542   -7.8250    0.0000 O   0  0  0  0  0  0  0  0  0  0  0  0
    3.1417   -6.3417    0.0000 O   0  0  0  0  0  0  0  0  0  0  0  0
    5.5792   -6.9292    0.0000 C   0  0  0  0  0  0  0  0  0  0  0  0
    5.3250   -5.9625    0.0000 C   0  0  0  0  0  0  0  0  0  0  0  0
    5.5667   -7.6417    0.0000 C   0  0  0  0  0  0  0  0  0  0  0  0
    6.2000   -6.5875    0.0000 C   0  0  0  0  0  0  0  0  0  0  0  0
    6.0375   -5.9667    0.0000 C   0  0  0  0  0  0  0  0  0  0  0  0
    4.9792   -5.3417    0.0000 C   0  0  0  0  0  0  0  0  0  0  0  0
    6.8125   -6.9500    0.0000 C   0  0  0  0  0  0  0  0  0  0  0  0
    6.4000   -5.3500    0.0000 C   0  0  0  0  0  0  0  0  0  0  0  0
    5.3375   -4.7292    0.0000 C   0  0  0  0  0  0  0  0  0  0  0  0
    6.1792   -8.0125    0.0000 C   0  0  0  0  0  0  0  0  0  0  0  0
    6.8000   -7.6625    0.0000 C   0  0  0  0  0  0  0  0  0  0  0  0
    6.0417   -4.7292    0.0000 C   0  0  0  0  0  0  0  0  0  0  0  0
  2  1  1  0
  3  1  1  0
  4  2  1  0
  5  3  1  0
  6  1  2  0
  7  4  2  0
  8  3  1  0
  9  3  1  0
 10  8  2  0
 11  8  1  0
 12  9  2  0
 13  9  1  0
 14 11  2  0
 15 12  1  0
 16 13  2  0
 17 10  1  0
 18 14  1  0
 19 16  1  0
  4  5  1  0
 19 15  2  0
 18 17  2  0
M  END
> <chembl_id>
CHEMBL16

> <chembl_pref_name>
PHENYTOIN

$$$$

     RDKit          2D

  4  3  0  0  0  0  0  0  0  0999 V2000
    1.8167   -0.6042    0.0000 S   0  0  0  0  0  0  0  0  0  0  0  0
   -1.7000    0.7375    0.0000 N   0  0  0  0  0  0  0  0  0  0  0  0
    0.2417   -0.5875    0.0000 C   0  0  0  0  0  0  0  0  0  0  0  0
   -0.5208    0.7375    0.0000 C   0  0  0  0  0  0  0  0  0  0  0  0
  2  4  1  0
  3  1  1  0
  4  3  1  0
M  END
> <chembl_id>
CHEMBL602

> <chembl_pref_name>
CYSTEAMINE

$$$$

     RDKit          2D

 16 17  0  0  0  0  0  0  0  0999 V2000
   -0.5739   -0.2736    0.0000 O   0  0  0  0  0  0  0  0  0  0  0  0
    0.1405    0.1389    0.0000 C   0  0  0  0  0  0  0  0  0  0  0  0
    0.1405    0.9639    0.0000 N   0  0  0  0  0  0  0  0  0  0  0  0
    0.8550    1.3764    0.0000 C   0  0  0  0  0  0  0  0  0  0  0  0
    0.8550    2.2014    0.0000 N   0  0  0  0  0  0  0  0  0  0  0  0
    1.5695    0.9639    0.0000 C   0  0  0  0  0  0  0  0  0  0  0  0
    2.2839    1.3764    0.0000 F   0  0  0  0  0  0  0  0  0  0  0  0
    1.5695    0.1389    0.0000 C   0  0  0  0  0  0  0  0  0  0  0  0
    0.8550   -0.2736    0.0000 N   0  0  0  0  0  0  0  0  0  0  0  0
    0.8550   -1.0986    0.0000 C   0  0  0  0  0  0  0  0  0  0  0  0
    1.5224   -1.5835    0.0000 O   0  0  0  0  0  0  0  0  0  0  0  0
    1.2675   -2.3681    0.0000 C   0  0  0  0  0  0  0  0  0  0  0  0
    1.7524   -3.0356    0.0000 C   0  0  0  0  0  0  0  0  0  0  0  0
    2.5729   -2.9493    0.0000 O   0  0  0  0  0  0  0  0  0  0  0  0
    0.4425   -2.3681    0.0000 S   0  0  0  0  0  0  0  0  0  0  0  0
    0.1876   -1.5835    0.0000 C   0  0  0  0  0  0  0  0  0  0  0  0
  2  1  2  0
  2  3  1  0
  2  9  1  0
  4  3  2  0
  4  5  1  0
  4  6  1  0
  6  7  1  0
  6  8  2  0
  8  9  1  0
 10  9  1  1
 10 11  1  0
 10 16  1  0
 12 11  1  0
 12 13  1  1
 12 15  1  0
 13 14  1  0
 16 15  1  0
M  END
> <chembl_id>
CHEMBL885

> <chembl_pref_name>
EMTRICITABINE

$$$$

     RDKit          2D

 21 22  0  0  1  0  0  0  0  0999 V2000
   -2.7000   -5.5208    0.0000 C   0  0  0  0  0  0  0  0  0  0  0  0
   -2.0875   -5.8750    0.0000 C   0  0  0  0  0  0  0  0  0  0  0  0
   -1.4750   -5.5167    0.0000 O   0  0  0  0  0  0  0  0  0  0  0  0
    0.9792   -5.5083    0.0000 N   0  0  0  0  0  0  0  0  0  0  0  0
    1.5917   -5.8625    0.0000 C   0  0  0  0  0  0  0  0  0  0  0  0
   -2.7000   -4.8083    0.0000 C   0  0  0  0  0  0  0  0  0  0  0  0
   -0.2500   -5.5125    0.0000 C   0  0  0  0  0  0  0  0  0  0  0  0
   -0.8625   -5.8708    0.0000 C   0  0  0  0  0  0  0  0  0  0  0  0
    0.3667   -5.8667    0.0000 C   0  0  0  0  0  0  0  0  0  0  0  0
   -0.2500   -4.8042    0.0000 O   0  0  0  0  0  0  0  0  0  0  0  0
   -3.3125   -5.8750    0.0000 C   0  0  0  0  0  0  0  0  0  0  0  0
   -2.0875   -6.5875    0.0000 C   0  0  0  0  0  0  0  0  0  0  0  0
    2.2042   -5.5042    0.0000 C   0  0  0  0  0  0  0  0  0  0  0  0
    1.9417   -6.4750    0.0000 C   0  0  0  0  0  0  0  0  0  0  0  0
    1.2292   -6.4750    0.0000 C   0  0  0  0  0  0  0  0  0  0  0  0
   -3.2750   -4.3958    0.0000 C   0  0  0  0  0  0  0  0  0  0  0  0
   -2.1292   -4.3917    0.0000 C   0  0  0  0  0  0  0  0  0  0  0  0
   -3.3125   -6.5875    0.0000 C   0  0  0  0  0  0  0  0  0  0  0  0
   -2.7000   -6.9417    0.0000 C   0  0  0  0  0  0  0  0  0  0  0  0
   -2.3500   -3.7167    0.0000 C   0  0  0  0  0  0  0  0  0  0  0  0
   -3.0583   -3.7208    0.0000 C   0  0  0  0  0  0  0  0  0  0  0  0
  2  1  2  0
  3  2  1  0
  4  9  1  0
  5  4  1  0
  6  1  1  0
  7  8  1  0
  8  3  1  0
  9  7  1  0
  7 10  1  1
 11  1  1  0
 12  2  1  0
 13  5  1  0
 14  5  1  0
 15  5  1  0
 16  6  1  0
 17  6  1  0
 18 11  2  0
 19 12  2  0
 20 17  1  0
 21 16  1  0
 19 18  1  0
 21 20  1  0
M  END
> <chembl_id>
CHEMBL1290

> <chembl_pref_name>
PENBUTOLOL

$$$$

     RDKit          2D

 21 23  0  0  0  0  0  0  0  0999 V2000
    4.4125   -3.7183    0.0000 C   0  0  0  0  0  0  0  0  0  0  0  0
    3.6917   -4.1391    0.0000 C   0  0  0  0  0  0  0  0  0  0  0  0
    4.4125   -2.8891    0.0000 C   0  0  0  0  0  0  0  0  0  0  0  0
    3.6917   -2.4766    0.0000 O   0  0  0  0  0  0  0  0  0  0  0  0
    2.9792   -3.7183    0.0000 C   0  0  0  0  0  0  0  0  0  0  0  0
    2.9792   -2.8933    0.0000 C   0  0  0  0  0  0  0  0  0  0  0  0
    5.1292   -4.1266    0.0000 C   0  0  0  0  0  0  0  0  0  0  0  0
    5.1250   -2.4766    0.0000 O   0  0  0  0  0  0  0  0  0  0  0  0
    3.6917   -4.9641    0.0000 O   0  0  0  0  0  0  0  0  0  0  0  0
    5.8417   -3.7141    0.0000 C   0  0  0  0  0  0  0  0  0  0  0  0
    2.2667   -4.1308    0.0000 C   0  0  0  0  0  0  0  0  0  0  0  0
    2.2667   -2.4766    0.0000 C   0  0  0  0  0  0  0  0  0  0  0  0
    5.1292   -4.9516    0.0000 C   0  0  0  0  0  0  0  0  0  0  0  0
    5.8375   -2.8891    0.0000 C   0  0  0  0  0  0  0  0  0  0  0  0
    6.5542   -4.1266    0.0000 C   0  0  0  0  0  0  0  0  0  0  0  0
    5.8417   -5.3641    0.0000 C   0  0  0  0  0  0  0  0  0  0  0  0
    1.5542   -3.7183    0.0000 C   0  0  0  0  0  0  0  0  0  0  0  0
    1.5542   -2.8891    0.0000 C   0  0  0  0  0  0  0  0  0  0  0  0
    7.2667   -3.7141    0.0000 C   0  0  0  0  0  0  0  0  0  0  0  0
    6.5500   -2.4766    0.0000 C   0  0  0  0  0  0  0  0  0  0  0  0
    7.2667   -2.8891    0.0000 C   0  0  0  0  0  0  0  0  0  0  0  0
  2  1  2  0
  3  1  1  0
  4  3  1  0
  5  2  1  0
  6  4  1  0
  7  1  1  0
  8  3  2  0
  9  2  1  0
 10  7  1  0
 11  5  2  0
 12  6  2  0
 13  7  1  0
 14 10  2  0
 15 10  1  0
 16 13  1  0
 17 11  1  0
 18 12  1  0
 19 15  2  0
 20 14  1  0
 21 19  1  0
  5  6  1  0
 20 21  2  0
 17 18  2  0
M  END
> <chembl_id>
CHEMBL1465

> <chembl_pref_name>
PHENPROCOUMON

$$$$

     RDKit          2D

 16 17  0  0  0  0  0  0  0  0999 V2000
   -0.6250    0.8833    0.0000 C   0  0  0  0  0  0  0  0  0  0  0  0
    0.6167    0.1333    0.0000 C   0  0  0  0  0  0  0  0  0  0  0  0
    1.9167    0.8250    0.0000 N   0  0  0  0  0  0  0  0  0  0  0  0
   -1.8583    0.1500    0.0000 C   0  0  0  0  0  0  0  0  0  0  0  0
    3.1167   -1.3917    0.0000 C   0  0  0  0  0  0  0  0  0  0  0  0
    0.6167   -1.2417    0.0000 C   0  0  0  0  0  0  0  0  0  0  0  0
   -0.6250   -1.9792    0.0000 C   0  0  0  0  0  0  0  0  0  0  0  0
    3.1042    0.0458    0.0000 N   0  0  0  0  0  0  0  0  0  0  0  0
   -1.8583   -1.2625    0.0000 C   0  0  0  0  0  0  0  0  0  0  0  0
   -0.6250    2.3000    0.0000 O   0  0  0  0  0  0  0  0  0  0  0  0
    1.9667   -2.0250    0.0000 O   0  0  0  0  0  0  0  0  0  0  0  0
    4.1875   -2.1750    0.0000 N   0  0  0  0  0  0  0  0  0  0  0  0
   -3.0958    0.8833    0.0000 C   0  0  0  0  0  0  0  0  0  0  0  0
   -3.0958   -1.9792    0.0000 C   0  0  0  0  0  0  0  0  0  0  0  0
   -4.3458    0.1333    0.0000 C   0  0  0  0  0  0  0  0  0  0  0  0
   -4.3458   -1.2417    0.0000 C   0  0  0  0  0  0  0  0  0  0  0  0
  2  1  1  0
  3  2  2  0
  4  1  1  0
  5  8  1  0
  6  2  1  0
  7  9  1  0
  8  3  1  0
  9  4  2  0
 10  1  2  0
 11  5  2  0
 12  5  1  0
 13  4  1  0
 14  9  1  0
 15 13  2  0
 16 15  1  0
  6  7  2  0
 14 16  2  0
M  END
> <chembl_id>
CHEMBL2106794

> <chembl_pref_name>
NAFTAZONE

$$$$

     RDKit          2D

 13 13  0  0  0  0  0  0  0  0999 V2000
    1.0042   -1.6417    0.0000 C   0  0  0  0  0  0  0  0  0  0  0  0
    1.0250   -0.9417    0.0000 N   0  0  0  0  0  0  0  0  0  0  0  0
    0.4000   -1.9917    0.0000 N   0  0  0  0  0  0  0  0  0  0  0  0
    1.6042   -1.9917    0.0000 N   0  0  0  0  0  0  0  0  0  0  0  0
   -0.2083   -1.6500    0.0000 C   0  0  0  0  0  0  0  0  0  0  0  0
   -0.8083   -1.9917    0.0000 C   0  0  0  0  0  0  0  0  0  0  0  0
    1.6542   -0.6208    0.0000 C   0  0  0  0  0  0  0  0  0  0  0  0
    2.2417   -1.6417    0.0000 C   0  0  0  0  0  0  0  0  0  0  0  0
   -1.4458   -1.6250    0.0000 C   0  0  0  0  0  0  0  0  0  0  0  0
   -0.8000   -2.6792    0.0000 C   0  0  0  0  0  0  0  0  0  0  0  0
   -2.0458   -1.9542    0.0000 C   0  0  0  0  0  0  0  0  0  0  0  0
   -1.4458   -3.0417    0.0000 C   0  0  0  0  0  0  0  0  0  0  0  0
   -2.0583   -2.6917    0.0000 C   0  0  0  0  0  0  0  0  0  0  0  0
  2  1  2  0
  3  1  1  0
  4  1  1  0
  5  3  1  0
  6  5  1  0
  7  2  1  0
  8  4  1  0
  9  6  2  0
 10  6  1  0
 11  9  1  0
 12 10  2  0
 13 12  1  0
 11 13  2  0
M  END
> <chembl_id>
CHEMBL1201260

> <chembl_pref_name>
BETHANIDINE

$$$$

     RDKit          2D

 20 19  0  0  0  0  0  0  0  0999 V2000
    1.9349   -0.7955    0.0000 Na  0  0  0  0  0 15  0  0  0  0  0  0
    0.2711   -1.0836    0.0000 N   0  0  0  0  0  0  0  0  0  0  0  0
   -1.1579   -1.0836    0.0000 N   0  0  0  0  0  0  0  0  0  0  0  0
    0.2711   -0.2586    0.0000 C   0  0  0  0  0  0  0  0  0  0  0  0
   -0.4434   -1.4961    0.0000 C   0  0  0  0  0  0  0  0  0  0  0  0
   -0.4434    0.1539    0.0000 C   0  0  0  0  0  0  0  0  0  0  0  0
   -1.1579   -0.2586    0.0000 C   0  0  0  0  0  0  0  0  0  0  0  0
    0.8993    0.6426    0.0000 C   0  0  0  0  0  0  0  0  0  0  0  0
    1.7118    0.4993    0.0000 C   0  0  0  0  0  0  0  0  0  0  0  0
   -0.4434   -2.3211    0.0000 O   0  0  0  0  0  0  0  0  0  0  0  0
    0.9855    0.1539    0.0000 O   0  0  0  0  0  0  0  0  0  0  0  0
    0.0869    0.7859    0.0000 C   0  0  0  0  0  0  0  0  0  0  0  0
   -1.8724    0.1539    0.0000 O   0  0  0  0  0  0  0  0  0  0  0  0
   -0.9737    0.7859    0.0000 C   0  0  0  0  0  0  0  0  0  0  0  0
    0.9855   -1.4961    0.0000 C   0  0  0  0  0  0  0  0  0  0  0  0
   -1.7862    0.6426    0.0000 C   0  0  0  0  0  0  0  0  0  0  0  0
   -2.3165    1.2746    0.0000 C   0  0  0  0  0  0  0  0  0  0  0  0
    2.5243    0.3561    0.0000 C   0  0  0  0  0  0  0  0  0  0  0  0
   -0.1953    1.5611    0.0000 C   0  0  0  0  0  0  0  0  0  0  0  0
    3.0546    0.9881    0.0000 C   0  0  0  0  0  0  0  0  0  0  0  0
  3  5  2  0
  4  2  1  0
  5  2  1  0
  6  4  1  0
  7  3  1  0
  8 12  1  0
  9  8  3  0
 10  5  1  0
 11  4  2  0
 12  6  1  0
 13  7  2  0
 14  6  1  0
 15  2  1  0
 16 14  1  0
 17 16  2  0
 18  9  1  0
 19 12  1  0
 20 18  1  0
  7  6  1  0
M  CHG  2   1   1  10  -1
M  END
> <chembl_id>
CHEMBL30219

> <chembl_pref_name>
METHOHEXITAL SODIUM

$$$$

     RDKit          2D

  1  0  0  0  0  0  0  0  0  0999 V2000
    2.1792    0.8125    0.0000 Xe  0  0  0  0  0 15  0  0  0  0  0  0
M  ISO  1   1 133
M  END
> <chembl_id>
CHEMBL1200685

> <chembl_pref_name>
XENON XE 133

$$$$

     RDKit          2D

 12 13  0  0  0  0  0  0  0  0999 V2000
   -0.1208   -0.9500    0.0000 C   0  0  0  0  0  0  0  0  0  0  0  0
    0.1000   -0.2792    0.0000 N   0  0  0  0  0  0  0  0  0  0  0  0
    0.4500   -1.3667    0.0000 N   0  0  0  0  0  0  0  0  0  0  0  0
   -0.7250   -1.3250    0.0000 C   0  0  0  0  0  0  0  0  0  0  0  0
   -1.3458   -0.9917    0.0000 C   0  0  0  0  0  0  0  0  0  0  0  0
    0.8125   -0.2875    0.0000 C   0  0  0  0  0  0  0  0  0  0  0  0
    1.0250   -0.9542    0.0000 C   0  0  0  0  0  0  0  0  0  0  0  0
   -1.9458   -1.3625    0.0000 C   0  0  0  0  0  0  0  0  0  0  0  0
   -1.3625   -0.2792    0.0000 C   0  0  0  0  0  0  0  0  0  0  0  0
   -1.9958    0.0500    0.0000 C   0  0  0  0  0  0  0  0  0  0  0  0
   -2.5708   -1.0250    0.0000 C   0  0  0  0  0  0  0  0  0  0  0  0
   -2.5958   -0.3125    0.0000 C   0  0  0  0  0  0  0  0  0  0  0  0
  2  1  2  0
  3  1  1  0
  4  1  1  0
  5  4  1  0
  6  2  1  0
  7  3  1  0
  8  5  1  0
  9  5  2  0
 10  9  1  0
 11  8  2  0
 12 11  1  0
  6  7  1  0
 12 10  2  0
M  END
> <chembl_id>
CHEMBL770

> <chembl_pref_name>
TOLAZOLINE

$$$$

     RDKit          2D

  1  0  0  0  0  0  0  0  0  0999 V2000
   -0.1083    0.0500    0.0000 He  0  0  0  0  0 15  0  0  0  0  0  0
M  END
> <chembl_id>
CHEMBL1796997

> <chembl_pref_name>
HELIUM

$$$$

     RDKit          2D

 14 14  0  0  0  0  0  0  0  0999 V2000
    0.6875    0.0625    0.0000 N   0  0  0  0  0  0  0  0  0  0  0  0
    1.3792   -1.1375    0.0000 C   0  0  0  0  0  0  0  0  0  0  0  0
   -0.7458    0.0625    0.0000 C   0  0  0  0  0  0  0  0  0  0  0  0
    0.6375   -2.3375    0.0000 O   0  0  0  0  0  0  0  0  0  0  0  0
   -1.4458    1.3083    0.0000 C   0  0  0  0  0  0  0  0  0  0  0  0
   -1.4875   -1.1375    0.0000 C   0  0  0  0  0  0  0  0  0  0  0  0
    2.7667   -1.1375    0.0000 C   0  0  0  0  0  0  0  0  0  0  0  0
    3.5042    0.0625    0.0000 N   0  0  0  0  0  0  0  0  0  0  0  0
   -3.6208    0.0625    0.0000 C   0  0  0  0  0  0  0  0  0  0  0  0
   -2.8750    1.3583    0.0000 C   0  0  0  0  0  0  0  0  0  0  0  0
   -2.9208   -1.1375    0.0000 C   0  0  0  0  0  0  0  0  0  0  0  0
   -0.7000    2.6083    0.0000 C   0  0  0  0  0  0  0  0  0  0  0  0
   -0.7458   -2.4292    0.0000 C   0  0  0  0  0  0  0  0  0  0  0  0
    3.5042   -2.3875    0.0000 C   0  0  0  0  0  0  0  0  0  0  0  0
  2  1  1  0
  3  1  1  0
  4  2  2  0
  5  3  2  0
  6  3  1  0
  7  2  1  0
  8  7  1  0
  9 11  1  0
 10  5  1  0
 11  6  2  0
 12  5  1  0
 13  6  1  0
 14  7  1  0
 10  9  2  0
M  END
> <chembl_id>
CHEMBL1762

> <chembl_pref_name>
TOCAINIDE

$$$$

     RDKit          2D

 18 18  0  0  0  0  0  0  0  0999 V2000
    2.3750    1.4000    0.0000 C   0  0  0  0  0  0  0  0  0  0  0  0
   -2.3333   -0.2667    0.0000 C   0  0  0  0  0  0  0  0  0  0  0  0
    1.4417    0.8458    0.0000 C   0  0  0  0  0  0  0  0  0  0  0  0
   -3.2708   -0.8167    0.0000 C   0  0  0  0  0  0  0  0  0  0  0  0
    1.4500   -0.2167    0.0000 C   0  0  0  0  0  0  0  0  0  0  0  0
    3.3042    0.8833    0.0000 C   0  0  0  0  0  0  0  0  0  0  0  0
   -2.3333    0.8208    0.0000 O   0  0  0  0  0  0  0  0  0  0  0  0
   -1.3833   -0.8000    0.0000 N   0  0  0  0  0  0  0  0  0  0  0  0
    2.4042   -0.7542    0.0000 C   0  0  0  0  0  0  0  0  0  0  0  0
   -0.4500   -0.2500    0.0000 N   0  0  0  0  0  0  0  0  0  0  0  0
    3.3292   -0.2042    0.0000 C   0  0  0  0  0  0  0  0  0  0  0  0
    2.3542    2.4833    0.0000 O   0  0  0  0  0  0  0  0  0  0  0  0
   -4.2083   -0.2792    0.0000 N   0  0  0  0  0  0  0  0  0  0  0  0
    0.4792    1.4000    0.0000 O   0  0  0  0  0  0  0  0  0  0  0  0
    4.2625    1.4333    0.0000 O   0  0  0  0  0  0  0  0  0  0  0  0
    0.5042   -0.7917    0.0000 C   0  0  0  0  0  0  0  0  0  0  0  0
   -3.2458   -1.8542    0.0000 C   0  0  0  0  0  0  0  0  0  0  0  0
   -2.3208   -2.4042    0.0000 O   0  0  0  0  0  0  0  0  0  0  0  0
  2  8  1  0
  3  1  2  0
  4  2  1  0
  5  3  1  0
  6  1  1  0
  7  2  2  0
  8 10  1  0
  9 11  1  0
 10 16  1  0
 11  6  2  0
 12  1  1  0
 13  4  1  0
 14  3  1  0
 15  6  1  0
 16  5  1  0
 17  4  1  0
 18 17  1  0
  5  9  2  0
M  END
> <chembl_id>
CHEMBL1096979

> <chembl_pref_name>
BENSERAZIDE

$$$$

     RDKit          2D

 14 14  0  0  0  0  0  0  0  0999 V2000
    4.1500   -6.8417    0.0000 Cl  0  0  0  0  0  0  0  0  0  0  0  0
    4.7667   -5.7417    0.0000 C   0  0  0  0  0  0  0  0  0  0  0  0
    4.1750   -4.6792    0.0000 N   0  0  0  0  0  0  0  0  0  0  0  0
    4.1417   -6.0917    0.0000 O   0  0  0  0  0  0  0  0  0  0  0  0
    4.7792   -5.0375    0.0000 C   0  0  0  0  0  0  0  0  0  0  0  0
    5.3750   -6.1000    0.0000 C   0  0  0  0  0  0  0  0  0  0  0  0
    3.5417   -5.0292    0.0000 C   0  0  0  0  0  0  0  0  0  0  0  0
    3.5375   -5.7292    0.0000 C   0  0  0  0  0  0  0  0  0  0  0  0
    5.3625   -6.8042    0.0000 C   0  0  0  0  0  0  0  0  0  0  0  0
    6.0000   -5.7500    0.0000 C   0  0  0  0  0  0  0  0  0  0  0  0
    5.4042   -4.6917    0.0000 C   0  0  0  0  0  0  0  0  0  0  0  0
    6.6042   -6.1042    0.0000 C   0  0  0  0  0  0  0  0  0  0  0  0
    5.9667   -7.1625    0.0000 C   0  0  0  0  0  0  0  0  0  0  0  0
    6.5917   -6.8125    0.0000 C   0  0  0  0  0  0  0  0  0  0  0  0
  3  5  1  0
  4  2  1  0
  5  2  1  0
  6  2  1  0
  7  3  1  0
  8  4  1  0
  9  6  1  0
 10  6  2  0
 11  5  1  0
 12 10  1  0
 13  9  2  0
 14 13  1  0
  7  8  1  0
 14 12  2  0
M  END
> <chembl_id>
CHEMBL1200483

> <chembl_pref_name>
PHENMETRAZINE HYDROCHLORIDE

$$$$

     RDKit          2D

 18 20  0  0  0  0  0  0  0  0999 V2000
   10.3250    0.5583    0.0000 C   0  0  0  0  0  0  0  0  0  0  0  0
    9.9125   -0.1583    0.0000 C   0  0  0  0  0  0  0  0  0  0  0  0
    9.5000    0.5583    0.0000 C   0  0  0  0  0  0  0  0  0  0  0  0
   11.0417    0.9708    0.0000 C   0  0  0  0  0  0  0  0  0  0  0  0
   11.0417    1.7958    0.0000 C   0  0  0  0  0  0  0  0  0  0  0  0
    7.3583    0.9708    0.0000 C   0  0  0  0  0  0  0  0  0  0  0  0
   11.7542    2.2083    0.0000 C   0  0  0  0  0  0  0  0  0  0  0  0
    8.7875    0.9708    0.0000 C   0  0  0  0  0  0  0  0  0  0  0  0
    8.0708    0.5583    0.0000 N   0  0  0  0  0  0  0  0  0  0  0  0
   11.5833    3.0125    0.0000 O   0  0  0  0  0  0  0  0  0  0  0  0
    7.3583    1.7958    0.0000 O   0  0  0  0  0  0  0  0  0  0  0  0
   11.7542    0.5583    0.0000 C   0  0  0  0  0  0  0  0  0  0  0  0
   10.7625    3.1000    0.0000 C   0  0  0  0  0  0  0  0  0  0  0  0
   10.4292    2.3458    0.0000 C   0  0  0  0  0  0  0  0  0  0  0  0
   12.4708    0.9708    0.0000 C   0  0  0  0  0  0  0  0  0  0  0  0
    6.6417    0.5583    0.0000 C   0  0  0  0  0  0  0  0  0  0  0  0
   12.4708    1.7958    0.0000 C   0  0  0  0  0  0  0  0  0  0  0  0
    5.9292    0.9708    0.0000 C   0  0  0  0  0  0  0  0  0  0  0  0
  2  1  1  0
  3  1  1  0
  1  4  1  6
  5  4  1  0
  6  9  1  0
  7  5  2  0
  3  8  1  1
  9  8  1  0
 10  7  1  0
 11  6  2  0
 12  4  2  0
 13 14  1  0
 14  5  1  0
 15 12  1  0
 16  6  1  0
 17  7  1  0
 18 16  1  0
  3  2  1  0
 10 13  1  0
 17 15  2  0
M  END
> <chembl_id>
CHEMBL2103822

> <chembl_pref_name>
TASIMELTEON

$$$$

     RDKit          2D

 20 21  0  0  0  0  0  0  0  0999 V2000
    3.0167    0.1458    0.0000 C   0  0  0  0  0  0  0  0  0  0  0  0
    2.5292    0.8083    0.0000 N   0  0  0  0  0  0  0  0  0  0  0  0
    2.5292   -0.5667    0.0000 S   0  0  0  0  0  0  0  0  0  0  0  0
    1.6917   -0.3167    0.0000 C   0  0  0  0  0  0  0  0  0  0  0  0
    1.6917    0.5625    0.0000 C   0  0  0  0  0  0  0  0  0  0  0  0
    3.8750    0.1583    0.0000 N   0  0  0  0  0  0  0  0  0  0  0  0
    0.9542   -0.7375    0.0000 C   0  0  0  0  0  0  0  0  0  0  0  0
    0.9542    0.9833    0.0000 C   0  0  0  0  0  0  0  0  0  0  0  0
    0.1875   -0.3167    0.0000 C   0  0  0  0  0  0  0  0  0  0  0  0
   -2.8458   -0.3417    0.0000 N   0  0  0  0  0  0  0  0  0  0  0  0
    0.1875    0.5625    0.0000 C   0  0  0  0  0  0  0  0  0  0  0  0
   -0.5750   -0.7667    0.0000 O   0  0  0  0  0  0  0  0  0  0  0  0
   -1.3375   -0.3167    0.0000 C   0  0  0  0  0  0  0  0  0  0  0  0
    4.2792    0.9083    0.0000 C   0  0  0  0  0  0  0  0  0  0  0  0
    4.3375   -0.5792    0.0000 C   0  0  0  0  0  0  0  0  0  0  0  0
   -2.1000   -0.7667    0.0000 C   0  0  0  0  0  0  0  0  0  0  0  0
   -2.8708    0.5125    0.0000 C   0  0  0  0  0  0  0  0  0  0  0  0
   -3.5833   -0.7917    0.0000 C   0  0  0  0  0  0  0  0  0  0  0  0
   -2.1250    0.9583    0.0000 C   0  0  0  0  0  0  0  0  0  0  0  0
   -4.3458   -0.3667    0.0000 C   0  0  0  0  0  0  0  0  0  0  0  0
  2  1  2  0
  3  1  1  0
  4  3  1  0
  5  2  1  0
  6  1  1  0
  7  4  1  0
  8  5  1  0
  9  7  2  0
 10 16  1  0
 11  8  2  0
 12  9  1  0
 13 12  1  0
 14  6  1  0
 15  6  1  0
 16 13  1  0
 17 10  1  0
 18 10  1  0
 19 17  1  0
 20 18  1  0
  5  4  2  0
 11  9  1  0
M  END
> <chembl_id>
CHEMBL1184360

> <chembl_pref_name>
DIAMTHAZOLE

$$$$

     RDKit          2D

  6  4  0  0  0  0  0  0  0  0999 V2000
    6.0792   -5.9750    0.0000 Ca  0  0  0  0  0 15  0  0  0  0  0  0
    4.2542   -4.3667    0.0000 P   0  0  0  0  0  0  0  0  0  0  0  0
    4.2542   -5.0625    0.0000 O   0  0  0  0  0  0  0  0  0  0  0  0
    4.9667   -4.3625    0.0000 O   0  0  0  0  0  0  0  0  0  0  0  0
    3.5417   -4.3667    0.0000 O   0  0  0  0  0  0  0  0  0  0  0  0
    4.2542   -3.6542    0.0000 O   0  0  0  0  0  0  0  0  0  0  0  0
  3  2  1  0
  4  2  1  0
  5  2  2  0
  6  2  1  0
M  CHG  3   1   2   3  -1   4  -1
M  END
> <chembl_id>
CHEMBL2107567

> <chembl_pref_name>
CALCIUM PHOSPHATE, DIBASIC

$$$$

     RDKit          2D

  2  0  0  0  0  0  0  0  0  0999 V2000
    4.2042   -6.3125    0.0000 Na  0  0  0  0  0 15  0  0  0  0  0  0
    5.2292   -6.3125    0.0000 Cl  0  0  0  0  0  0  0  0  0  0  0  0
M  CHG  2   1   1   2  -1
M  END
> <chembl_id>
CHEMBL1200574

> <chembl_pref_name>
SODIUM CHLORIDE

$$$$

     RDKit          2D

  8  8  0  0  0  0  0  0  0  0999 V2000
   -1.0083   -4.0917    0.0000 N   0  0  0  0  0  0  0  0  0  0  0  0
   -0.2833   -4.0917    0.0000 C   0  0  0  0  0  0  0  0  0  0  0  0
   -0.6500   -3.0000    0.0000 N   0  0  0  0  0  0  0  0  0  0  0  0
   -1.2333   -3.4042    0.0000 C   0  0  0  0  0  0  0  0  0  0  0  0
   -0.0708   -3.4167    0.0000 C   0  0  0  0  0  0  0  0  0  0  0  0
    0.0750   -4.7042    0.0000 C   0  0  0  0  0  0  0  0  0  0  0  0
    1.1417   -5.3167    0.0000 N   0  0  0  0  0  0  0  0  0  0  0  0
    0.7792   -4.7042    0.0000 C   0  0  0  0  0  0  0  0  0  0  0  0
  2  1  1  0
  3  4  1  0
  4  1  2  0
  5  2  2  0
  6  2  1  0
  7  8  1  0
  8  6  1  0
  5  3  1  0
M  END
> <chembl_id>
CHEMBL90

> <chembl_pref_name>
HISTAMINE

$$$$

     RDKit          2D

 16 15  0  0  0  0  0  0  0  0999 V2000
    1.2917   -1.0542    0.0000 Cl  0  0  0  0  0  0  0  0  0  0  0  0
   -0.7708    0.1000    0.0000 C   0  0  0  0  0  0  0  0  0  0  0  0
   -1.3833   -0.2542    0.0000 C   0  0  0  0  0  0  0  0  0  0  0  0
   -0.1583   -0.2417    0.0000 C   0  0  0  0  0  0  0  0  0  0  0  0
   -1.3833   -0.9625    0.0000 C   0  0  0  0  0  0  0  0  0  0  0  0
   -0.1500   -0.9542    0.0000 C   0  0  0  0  0  0  0  0  0  0  0  0
    1.6875    0.1125    0.0000 N   0  0  0  0  0  0  0  0  0  0  0  0
   -0.7708   -1.3167    0.0000 C   0  0  0  0  0  0  0  0  0  0  0  0
    1.0667   -0.2417    0.0000 C   0  0  0  0  0  0  0  0  0  0  0  0
    0.4542    0.1083    0.0000 C   0  0  0  0  0  0  0  0  0  0  0  0
   -2.0000    0.0958    0.0000 O   0  0  0  0  0  0  0  0  0  0  0  0
   -1.9958   -1.3167    0.0000 O   0  0  0  0  0  0  0  0  0  0  0  0
    0.4417    0.8208    0.0000 O   0  0  0  0  0  0  0  0  0  0  0  0
    2.3000   -0.2375    0.0000 C   0  0  0  0  0  0  0  0  0  0  0  0
    2.9167    0.1208    0.0000 C   0  0  0  0  0  0  0  0  0  0  0  0
    2.3042   -0.9500    0.0000 C   0  0  0  0  0  0  0  0  0  0  0  0
  3  2  2  0
  4  2  1  0
  5  3  1  0
  6  4  2  0
  7  9  1  0
  8  6  1  0
  9 10  1  0
 10  4  1  0
 11  3  1  0
 12  5  1  0
 13 10  1  0
 14  7  1  0
 15 14  1  0
 16 14  1  0
  8  5  2  0
M  END
> <chembl_id>
CHEMBL1711

> <chembl_pref_name>
ISOPROTERENOL HYDROCHLORIDE

$$$$

     RDKit          2D

  4  3  0  0  0  0  0  0  0  0999 V2000
    5.1917   -4.8792    0.0000 C   0  0  0  0  0  0  0  0  0  0  0  0
    5.1750   -4.1750    0.0000 O   0  0  0  0  0  0  0  0  0  0  0  0
    4.5917   -5.2667    0.0000 O   0  0  0  0  0  0  0  0  0  0  0  0
    5.8125   -5.2375    0.0000 C   0  0  0  0  0  0  0  0  0  0  0  0
  2  1  2  0
  3  1  1  0
  4  1  1  0
M  END
> <chembl_id>
CHEMBL539

> <chembl_pref_name>
ACETIC ACID

$$$$

     RDKit          2D

  3  2  0  0  0  0  0  0  0  0999 V2000
    0.4625   -0.7042    0.0000 Cl  0  0  0  0  0  0  0  0  0  0  0  0
   -0.5625   -0.7042    0.0000 C   0  0  0  0  0  0  0  0  0  0  0  0
   -1.0583    1.0583    0.0000 C   0  0  0  0  0  0  0  0  0  0  0  0
  2  1  1  0
  3  2  1  0
M  END
> <chembl_id>
CHEMBL46058

> <chembl_pref_name>
ETHYL CHLORIDE

$$$$

     RDKit          2D

 16 17  0  0  0  0  0  0  0  0999 V2000
    0.3000    0.6458    0.0000 C   0  0  0  0  0  0  0  0  0  0  0  0
   -0.3458   -0.5167    0.0000 C   0  0  0  0  0  0  0  0  0  0  0  0
   -0.3458    1.8000    0.0000 O   0  0  0  0  0  0  0  0  0  0  0  0
    1.6542    0.6458    0.0000 C   0  0  0  0  0  0  0  0  0  0  0  0
   -1.6625   -0.5167    0.0000 C   0  0  0  0  0  0  0  0  0  0  0  0
    0.3000   -1.6792    0.0000 O   0  0  0  0  0  0  0  0  0  0  0  0
    2.3375    1.7708    0.0000 C   0  0  0  0  0  0  0  0  0  0  0  0
    2.3375   -0.5167    0.0000 C   0  0  0  0  0  0  0  0  0  0  0  0
   -2.3583    0.6458    0.0000 C   0  0  0  0  0  0  0  0  0  0  0  0
   -2.3583   -1.6667    0.0000 C   0  0  0  0  0  0  0  0  0  0  0  0
   -3.6500    0.6458    0.0000 C   0  0  0  0  0  0  0  0  0  0  0  0
   -3.6500   -1.6667    0.0000 C   0  0  0  0  0  0  0  0  0  0  0  0
    3.6625    1.7708    0.0000 C   0  0  0  0  0  0  0  0  0  0  0  0
    3.6625   -0.5500    0.0000 C   0  0  0  0  0  0  0  0  0  0  0  0
   -4.3458   -0.5167    0.0000 C   0  0  0  0  0  0  0  0  0  0  0  0
    4.3417    0.6458    0.0000 C   0  0  0  0  0  0  0  0  0  0  0  0
  2  1  1  0
  3  1  2  0
  4  1  1  0
  5  2  1  0
  6  2  1  0
  7  4  1  0
  8  4  2  0
  9  5  2  0
 10  5  1  0
 11  9  1  0
 12 10  2  0
 13  7  2  0
 14  8  1  0
 15 12  1  0
 16 14  2  0
 13 16  1  0
 11 15  2  0
M  END
> <chembl_id>
CHEMBL190677

> <chembl_pref_name>
BENZOIN

$$$$

     RDKit          2D

 10 10  0  0  0  0  0  0  0  0999 V2000
    1.5625    0.7125    0.0000 C   0  0  0  0  0  0  0  0  0  0  0  0
    2.7792    0.7208    0.0000 N   0  0  0  0  0  0  0  0  0  0  0  0
    0.9500    0.3583    0.0000 C   0  0  0  0  0  0  0  0  0  0  0  0
    2.1792    0.3625    0.0000 C   0  0  0  0  0  0  0  0  0  0  0  0
    0.9542   -0.3542    0.0000 C   0  0  0  0  0  0  0  0  0  0  0  0
    0.3292    0.7083    0.0000 C   0  0  0  0  0  0  0  0  0  0  0  0
    2.1792   -0.3500    0.0000 C   0  0  0  0  0  0  0  0  0  0  0  0
    0.3375   -0.7167    0.0000 C   0  0  0  0  0  0  0  0  0  0  0  0
   -0.2833    0.3458    0.0000 C   0  0  0  0  0  0  0  0  0  0  0  0
   -0.2833   -0.3625    0.0000 C   0  0  0  0  0  0  0  0  0  0  0  0
  2  4  1  0
  3  1  1  0
  4  1  1  0
  5  3  2  0
  6  3  1  0
  7  4  1  0
  8  5  1  0
  9  6  2  0
 10  8  2  0
  9 10  1  0
M  END
> <chembl_id>
CHEMBL405

> <chembl_pref_name>
AMPHETAMINE

$$$$

     RDKit          2D

 10  9  0  0  1  0  0  0  0  0999 V2000
    0.0875  -17.0542    0.0000 C   0  0  0  0  0  0  0  0  0  0  0  0
    0.7042  -17.4125    0.0000 C   0  0  0  0  0  0  0  0  0  0  0  0
   -0.5250  -17.4125    0.0000 C   0  0  0  0  0  0  0  0  0  0  0  0
    1.3167  -17.0542    0.0000 C   0  0  0  0  0  0  0  0  0  0  0  0
   -0.5250  -18.1292    0.0000 O   0  0  0  0  0  0  0  0  0  0  0  0
    1.3167  -16.3417    0.0000 O   0  0  0  0  0  0  0  0  0  0  0  0
    0.0875  -16.3500    0.0000 S   0  0  0  0  0  0  0  0  0  0  0  0
    0.7042  -18.1292    0.0000 S   0  0  0  0  0  0  0  0  0  0  0  0
    1.9292  -17.4125    0.0000 O   0  0  0  0  0  0  0  0  0  0  0  0
   -1.1458  -17.0542    0.0000 O   0  0  0  0  0  0  0  0  0  0  0  0
  2  1  1  0
  3  1  1  0
  4  2  1  0
  5  3  2  0
  6  4  2  0
  1  7  1  1
  2  8  1  6
  9  4  1  0
 10  3  1  0
M  END
> <chembl_id>
CHEMBL1201073

> <chembl_pref_name>
SUCCIMER

$$$$

     RDKit          2D

 17 16  0  0  0  0  0  0  0  0999 V2000
    1.7750   -0.7792    0.0000 Cl  0  0  0  0  0  0  0  0  0  0  0  0
    0.4750    0.2625    0.0000 C   0  0  0  0  0  0  0  0  0  0  0  0
   -0.1375    0.6208    0.0000 N   0  0  0  0  0  0  0  0  0  0  0  0
   -0.7583    0.2625    0.0000 C   0  0  0  0  0  0  0  0  0  0  0  0
    0.4750   -0.4500    0.0000 O   0  0  0  0  0  0  0  0  0  0  0  0
    1.0917    0.6125    0.0000 C   0  0  0  0  0  0  0  0  0  0  0  0
   -1.3708    0.6250    0.0000 C   0  0  0  0  0  0  0  0  0  0  0  0
    1.7042    0.2500    0.0000 N   0  0  0  0  0  0  0  0  0  0  0  0
   -0.7583   -0.4500    0.0000 C   0  0  0  0  0  0  0  0  0  0  0  0
   -1.3625    1.3375    0.0000 C   0  0  0  0  0  0  0  0  0  0  0  0
   -1.9750    0.2750    0.0000 C   0  0  0  0  0  0  0  0  0  0  0  0
    2.3375    0.5958    0.0000 C   0  0  0  0  0  0  0  0  0  0  0  0
    1.0875    1.3125    0.0000 C   0  0  0  0  0  0  0  0  0  0  0  0
    2.9417    0.2250    0.0000 C   0  0  0  0  0  0  0  0  0  0  0  0
   -1.3708   -0.8000    0.0000 C   0  0  0  0  0  0  0  0  0  0  0  0
    3.5667    0.5625    0.0000 C   0  0  0  0  0  0  0  0  0  0  0  0
   -1.9750   -0.4375    0.0000 C   0  0  0  0  0  0  0  0  0  0  0  0
  3  2  1  0
  4  3  1  0
  5  2  2  0
  6  2  1  0
  7  4  2  0
  8  6  1  0
  9  4  1  0
 10  7  1  0
 11  7  1  0
 12  8  1  0
 13  6  1  0
 14 12  1  0
 15  9  2  0
 16 14  1  0
 17 15  1  0
 17 11  2  0
M  END
> <chembl_id>
CHEMBL1200586

> <chembl_pref_name>
PRILOCAINE HYDROCHLORIDE

$$$$

     RDKit          2D

 18 19  0  0  0  0  0  0  0  0999 V2000
    0.0292   -1.8542    0.0000 N   0  0  0  0  0  0  0  0  0  0  0  0
    1.0042   -1.8042    0.0000 C   0  0  0  0  0  0  0  0  0  0  0  0
   -1.3708   -2.7792    0.0000 C   0  0  0  0  0  0  0  0  0  0  0  0
   -1.9833   -2.0167    0.0000 S   0  0  0  0  0  0  0  0  0  0  0  0
   -0.4000   -2.7250    0.0000 C   0  0  0  0  0  0  0  0  0  0  0  0
    1.5417   -2.6167    0.0000 N   0  0  0  0  0  0  0  0  0  0  0  0
   -2.8958   -2.3625    0.0000 C   0  0  0  0  0  0  0  0  0  0  0  0
   -1.9083   -3.5917    0.0000 C   0  0  0  0  0  0  0  0  0  0  0  0
   -0.4833   -1.0417    0.0000 C   0  0  0  0  0  0  0  0  0  0  0  0
   -2.8500   -3.3375    0.0000 C   0  0  0  0  0  0  0  0  0  0  0  0
   -1.9833   -0.2667    0.0000 N   0  0  0  0  0  0  0  0  0  0  0  0
   -1.4583   -1.0875    0.0000 C   0  0  0  0  0  0  0  0  0  0  0  0
    1.4500   -0.9417    0.0000 C   0  0  0  0  0  0  0  0  0  0  0  0
    2.5167   -2.5792    0.0000 C   0  0  0  0  0  0  0  0  0  0  0  0
   -2.9625   -0.3167    0.0000 C   0  0  0  0  0  0  0  0  0  0  0  0
   -1.5458    0.5875    0.0000 C   0  0  0  0  0  0  0  0  0  0  0  0
    2.4250   -0.8875    0.0000 C   0  0  0  0  0  0  0  0  0  0  0  0
    2.9542   -1.7042    0.0000 C   0  0  0  0  0  0  0  0  0  0  0  0
  2  1  1  0
  3  5  1  0
  4  3  1  0
  5  1  1  0
  6  2  2  0
  7  4  1  0
  8  3  2  0
  9  1  1  0
 10  8  1  0
 11 12  1  0
 12  9  1  0
 13  2  1  0
 14  6  1  0
 15 11  1  0
 16 11  1  0
 17 13  2  0
 18 14  2  0
 10  7  2  0
 17 18  1  0
M  END
> <chembl_id>
CHEMBL1411979

> <chembl_pref_name>
METHAPYRILENE

$$$$

     RDKit          2D

 15 15  0  0  1  0  0  0  0  0999 V2000
    1.3708   -0.8542    0.0000 N   0  0  0  0  0  0  0  0  0  0  0  0
    0.8167   -1.9292    0.0000 C   0  0  0  0  0  0  0  0  0  0  0  0
    0.8083   -1.2333    0.0000 C   0  0  0  0  0  0  0  0  0  0  0  0
    1.4000   -2.2750    0.0000 C   0  0  0  0  0  0  0  0  0  0  0  0
    1.9917   -1.8917    0.0000 C   0  0  0  0  0  0  0  0  0  0  0  0
    1.9875   -1.2042    0.0000 C   0  0  0  0  0  0  0  0  0  0  0  0
    0.2292   -2.3083    0.0000 O   0  0  0  0  0  0  0  0  0  0  0  0
    1.4042   -2.9667    0.0000 O   0  0  0  0  0  0  0  0  0  0  0  0
    2.6000   -2.2375    0.0000 O   0  0  0  0  0  0  0  0  0  0  0  0
    1.3667   -0.1875    0.0000 C   0  0  0  0  0  0  0  0  0  0  0  0
    0.1958   -0.8917    0.0000 C   0  0  0  0  0  0  0  0  0  0  0  0
   -0.4083   -1.2792    0.0000 O   0  0  0  0  0  0  0  0  0  0  0  0
    0.6458    0.1875    0.0000 C   0  0  0  0  0  0  0  0  0  0  0  0
    0.1083   -0.2208    0.0000 C   0  0  0  0  0  0  0  0  0  0  0  0
   -0.6208    0.1458    0.0000 C   0  0  0  0  0  0  0  0  0  0  0  0
  2  3  1  0
  3  1  1  0
  4  5  1  0
  5  6  1  0
  6  1  1  0
  2  7  1  6
  4  8  1  1
  5  9  1  6
 10  1  1  0
  3 11  1  1
 12 11  1  0
 13 10  1  0
 14 13  1  0
 15 14  1  0
  4  2  1  0
M  END
> <chembl_id>
CHEMBL1029

> <chembl_pref_name>
MIGLUSTAT

$$$$

     RDKit          2D

 19 18  0  0  0  0  0  0  0  0999 V2000
    3.2917   -3.0917    0.0000 S   0  0  0  0  0  0  0  0  0  0  0  0
    3.9292   -3.4042    0.0000 O   0  0  0  0  0  0  0  0  0  0  0  0
    2.7042   -3.4875    0.0000 O   0  0  0  0  0  0  0  0  0  0  0  0
    3.6417   -2.4792    0.0000 O   0  0  0  0  0  0  0  0  0  0  0  0
    2.9375   -2.4792    0.0000 O   0  0  0  0  0  0  0  0  0  0  0  0
    2.0875   -3.1792    0.0000 C   0  0  0  0  0  0  0  0  0  0  0  0
    2.0542   -2.4625    0.0000 C   0  0  0  0  0  0  0  0  0  0  0  0
    1.4792   -3.5542    0.0000 C   0  0  0  0  0  0  0  0  0  0  0  0
    0.8625   -3.2000    0.0000 C   0  0  0  0  0  0  0  0  0  0  0  0
    1.4042   -2.1500    0.0000 C   0  0  0  0  0  0  0  0  0  0  0  0
    0.2375   -3.5375    0.0000 C   0  0  0  0  0  0  0  0  0  0  0  0
    0.2500   -4.2542    0.0000 C   0  0  0  0  0  0  0  0  0  0  0  0
   -0.3625   -3.1917    0.0000 C   0  0  0  0  0  0  0  0  0  0  0  0
   -1.5958   -3.1667    0.0000 C   0  0  0  0  0  0  0  0  0  0  0  0
   -0.9833   -3.5250    0.0000 C   0  0  0  0  0  0  0  0  0  0  0  0
    0.8167   -2.5250    0.0000 C   0  0  0  0  0  0  0  0  0  0  0  0
    1.3750   -1.4292    0.0000 C   0  0  0  0  0  0  0  0  0  0  0  0
    0.8375   -4.6167    0.0000 C   0  0  0  0  0  0  0  0  0  0  0  0
   -2.2208   -3.5292    0.0000 C   0  0  0  0  0  0  0  0  0  0  0  0
  2  1  1  0
  3  1  1  0
  4  1  2  0
  5  1  2  0
  6  3  1  0
  7  6  1  0
  8  6  1  0
  9  8  1  0
 10  7  1  0
 11  9  1  0
 12 11  1  0
 13 11  1  0
 14 15  1  0
 15 13  1  0
 16 10  1  0
 17 10  1  0
 18 12  1  0
 19 14  1  0
M  END
> <chembl_id>
CHEMBL1201345

> <chembl_pref_name>
TETRADECYL SULFURIC ACID

$$$$

     RDKit          2D

 10  9  0  0  0  0  0  0  0  0999 V2000
    1.4042   -4.4042    0.0000 C   0  0  0  0  0  0  0  0  0  0  0  0
    0.7917   -4.0542    0.0000 O   0  0  0  0  0  0  0  0  0  0  0  0
    0.1792   -4.4042    0.0000 C   0  0  0  0  0  0  0  0  0  0  0  0
    2.0167   -4.0542    0.0000 C   0  0  0  0  0  0  0  0  0  0  0  0
    1.0500   -5.0125    0.0000 F   0  0  0  0  0  0  0  0  0  0  0  0
    1.7542   -5.0167    0.0000 F   0  0  0  0  0  0  0  0  0  0  0  0
    0.1792   -5.1167    0.0000 F   0  0  0  0  0  0  0  0  0  0  0  0
   -0.4333   -4.0542    0.0000 F   0  0  0  0  0  0  0  0  0  0  0  0
    2.6292   -4.4042    0.0000 F   0  0  0  0  0  0  0  0  0  0  0  0
    2.0167   -3.3417    0.0000 Cl  0  0  0  0  0  0  0  0  0  0  0  0
  2  1  1  0
  3  2  1  0
  4  1  1  0
  5  1  1  0
  6  1  1  0
  7  3  1  0
  8  3  1  0
  9  4  1  0
 10  4  1  0
M  END
> <chembl_id>
CHEMBL1257

> <chembl_pref_name>
ENFLURANE

$$$$

     RDKit          2D

 17 17  0  0  0  0  0  0  0  0999 V2000
    3.2417   -5.7500    0.0000 C   0  0  0  0  0  0  0  0  0  0  0  0
    6.9292   -5.7167    0.0000 C   0  0  0  0  0  0  0  0  0  0  0  0
    5.0792   -5.3625    0.0000 C   0  0  0  0  0  0  0  0  0  0  0  0
    3.8500   -5.3792    0.0000 O   0  0  0  0  0  0  0  0  0  0  0  0
    6.3167   -5.3542    0.0000 O   0  0  0  0  0  0  0  0  0  0  0  0
    3.2417   -6.3792    0.0000 O   0  0  0  0  0  0  0  0  0  0  0  0
    6.9292   -6.4292    0.0000 O   0  0  0  0  0  0  0  0  0  0  0  0
    4.4667   -5.7292    0.0000 C   0  0  0  0  0  0  0  0  0  0  0  0
    5.7000   -5.7167    0.0000 C   0  0  0  0  0  0  0  0  0  0  0  0
    5.0792   -4.6542    0.0000 C   0  0  0  0  0  0  0  0  0  0  0  0
    7.5500   -5.3542    0.0000 N   0  0  0  0  0  0  0  0  0  0  0  0
    2.6000   -5.4167    0.0000 N   0  0  0  0  0  0  0  0  0  0  0  0
    4.4667   -4.2875    0.0000 C   0  0  0  0  0  0  0  0  0  0  0  0
    5.7000   -4.2917    0.0000 C   0  0  0  0  0  0  0  0  0  0  0  0
    4.4667   -3.5750    0.0000 C   0  0  0  0  0  0  0  0  0  0  0  0
    5.7000   -3.5750    0.0000 C   0  0  0  0  0  0  0  0  0  0  0  0
    5.0792   -3.2167    0.0000 C   0  0  0  0  0  0  0  0  0  0  0  0
  2  5  1  0
  3  8  1  0
  4  1  1  0
  5  9  1  0
  6  1  2  0
  7  2  2  0
  8  4  1  0
  9  3  1  0
 10  3  1  0
 11  2  1  0
 12  1  1  0
 13 10  2  0
 14 10  1  0
 15 13  1  0
 16 14  2  0
 17 16  1  0
 17 15  2  0
M  END
> <chembl_id>
CHEMBL1094

> <chembl_pref_name>
FELBAMATE

$$$$

     RDKit          2D

 20 21  0  0  1  0  0  0  0  0999 V2000
   -0.5875    0.3458    0.0000 C   0  0  0  0  0  0  0  0  0  0  0  0
    0.6500    1.0458    0.0000 N   0  0  0  0  0  0  0  0  0  0  0  0
    1.8792    0.3208    0.0000 C   0  0  0  0  0  0  0  0  0  0  0  0
   -3.0500    0.3500    0.0000 N   0  0  0  0  0  0  0  0  0  0  0  0
   -1.8083    1.0583    0.0000 C   0  0  0  0  0  0  0  0  0  0  0  0
   -0.6083   -1.0792    0.0000 O   0  0  0  0  0  0  0  0  0  0  0  0
    3.1167    1.0125    0.0000 C   0  0  0  0  0  0  0  0  0  0  0  0
    1.8667   -1.1042    0.0000 C   0  0  0  0  0  0  0  0  0  0  0  0
   -3.0833   -1.0792    0.0000 C   0  0  0  0  0  0  0  0  0  0  0  0
   -4.2833    1.0708    0.0000 C   0  0  0  0  0  0  0  0  0  0  0  0
    4.3375   -1.1292    0.0000 C   0  0  0  0  0  0  0  0  0  0  0  0
   -1.8000    2.4708    0.0000 C   0  0  0  0  0  0  0  0  0  0  0  0
    3.0917   -1.8292    0.0000 C   0  0  0  0  0  0  0  0  0  0  0  0
    4.3417    0.2875    0.0000 C   0  0  0  0  0  0  0  0  0  0  0  0
    0.6292   -1.8250    0.0000 C   0  0  0  0  0  0  0  0  0  0  0  0
    3.1250    2.4458    0.0000 C   0  0  0  0  0  0  0  0  0  0  0  0
   -4.3208   -1.7625    0.0000 C   0  0  0  0  0  0  0  0  0  0  0  0
   -4.2708    2.4958    0.0000 C   0  0  0  0  0  0  0  0  0  0  0  0
   -3.0208    3.1875    0.0000 C   0  0  0  0  0  0  0  0  0  0  0  0
   -4.3458   -3.1792    0.0000 C   0  0  0  0  0  0  0  0  0  0  0  0
  2  1  1  0
  3  2  1  0
  4  5  1  0
  5  1  1  1
  6  1  2  0
  7  3  1  0
  8  3  2  0
  9  4  1  0
 10  4  1  0
 11 13  2  0
 12  5  1  0
 13  8  1  0
 14  7  2  0
 15  8  1  0
 16  7  1  0
 17  9  1  0
 18 19  1  0
 19 12  1  0
 20 17  1  0
 10 18  1  0
 14 11  1  0
M  END
> <chembl_id>
CHEMBL1077896

> <chembl_pref_name>
ROPIVACAINE

$$$$

     RDKit          2D

 16 17  0  0  0  0  0  0  0  0999 V2000
    5.1125   -4.8000    0.0000 C   0  0  0  0  0  0  0  0  0  0  0  0
    6.3500   -4.7750    0.0000 N   0  0  0  0  0  0  0  0  0  0  0  0
    5.7292   -5.1417    0.0000 C   0  0  0  0  0  0  0  0  0  0  0  0
    4.5125   -5.1542    0.0000 C   0  0  0  0  0  0  0  0  0  0  0  0
    5.1167   -4.0792    0.0000 N   0  0  0  0  0  0  0  0  0  0  0  0
    6.3375   -4.0667    0.0000 C   0  0  0  0  0  0  0  0  0  0  0  0
    3.8917   -4.8125    0.0000 C   0  0  0  0  0  0  0  0  0  0  0  0
    5.7167   -3.7167    0.0000 N   0  0  0  0  0  0  0  0  0  0  0  0
    3.2917   -5.1667    0.0000 C   0  0  0  0  0  0  0  0  0  0  0  0
    5.7542   -5.8667    0.0000 N   0  0  0  0  0  0  0  0  0  0  0  0
    6.9375   -3.7042    0.0000 N   0  0  0  0  0  0  0  0  0  0  0  0
    3.8875   -4.0667    0.0000 Cl  0  0  0  0  0  0  0  0  0  0  0  0
    4.5250   -5.8667    0.0000 C   0  0  0  0  0  0  0  0  0  0  0  0
    2.6542   -4.8375    0.0000 Cl  0  0  0  0  0  0  0  0  0  0  0  0
    3.9167   -6.2250    0.0000 C   0  0  0  0  0  0  0  0  0  0  0  0
    3.3042   -5.8792    0.0000 C   0  0  0  0  0  0  0  0  0  0  0  0
  2  3  1  0
  3  1  2  0
  4  1  1  0
  5  1  1  0
  6  8  1  0
  7  4  1  0
  8  5  2  0
  9  7  2  0
 10  3  1  0
 11  6  1  0
 12  7  1  0
 13  4  2  0
 14  9  1  0
 15 13  1  0
 16 15  2  0
  6  2  2  0
 16  9  1  0
M  END
> <chembl_id>
CHEMBL741

> <chembl_pref_name>
LAMOTRIGINE

$$$$

     RDKit          2D

 14 15  0  0  0  0  0  0  0  0999 V2000
    6.4000   -7.2000    0.0000 S   0  0  0  0  0  0  0  0  0  0  0  0
    5.8000   -6.1292    0.0000 C   0  0  0  0  0  0  0  0  0  0  0  0
    6.2208   -5.5583    0.0000 N   0  0  0  0  0  0  0  0  0  0  0  0
    5.7917   -6.8417    0.0000 C   0  0  0  0  0  0  0  0  0  0  0  0
    5.1250   -5.9042    0.0000 C   0  0  0  0  0  0  0  0  0  0  0  0
    5.8042   -4.9792    0.0000 O   0  0  0  0  0  0  0  0  0  0  0  0
    5.1292   -5.1958    0.0000 C   0  0  0  0  0  0  0  0  0  0  0  0
    6.7500   -7.8167    0.0000 O   0  0  0  0  0  0  0  0  0  0  0  0
    6.0417   -7.8167    0.0000 O   0  0  0  0  0  0  0  0  0  0  0  0
    7.0167   -6.8542    0.0000 N   0  0  0  0  0  0  0  0  0  0  0  0
    4.5125   -6.2583    0.0000 C   0  0  0  0  0  0  0  0  0  0  0  0
    4.5125   -4.8375    0.0000 C   0  0  0  0  0  0  0  0  0  0  0  0
    3.9000   -5.9042    0.0000 C   0  0  0  0  0  0  0  0  0  0  0  0
    3.9000   -5.1917    0.0000 C   0  0  0  0  0  0  0  0  0  0  0  0
  2  4  1  0
  3  2  2  0
  4  1  1  0
  5  2  1  0
  6  3  1  0
  7  5  1  0
  8  1  2  0
  9  1  2  0
 10  1  1  0
 11  5  2  0
 12  7  2  0
 13 11  1  0
 14 12  1  0
  6  7  1  0
 14 13  2  0
M  END
> <chembl_id>
CHEMBL750

> <chembl_pref_name>
ZONISAMIDE

$$$$

     RDKit          2D

  7  4  0  0  0  0  0  0  0  0999 V2000
    1.6167   -1.4667    0.0000 Na  0  0  0  0  0 15  0  0  0  0  0  0
    0.6083   -2.1458    0.0000 P   0  0  0  0  0  0  0  0  0  0  0  0
    0.9625   -2.7583    0.0000 O   0  0  0  0  0  0  0  0  0  0  0  0
    0.9625   -1.5292    0.0000 O   0  0  0  0  0  0  0  0  0  0  0  0
   -0.0125   -1.7958    0.0000 O   0  0  0  0  0  0  0  0  0  0  0  0
   -0.0125   -2.5042    0.0000 F   0  0  0  0  0  0  0  0  0  0  0  0
    1.6167   -2.8125    0.0000 Na  0  0  0  0  0 15  0  0  0  0  0  0
  3  2  1  0
  4  2  1  0
  5  2  2  0
  6  2  1  0
M  CHG  4   1   1   3  -1   4  -1   7   1
M  END
> <chembl_id>
CHEMBL1908359

> <chembl_pref_name>
SODIUM MONOFLUOROPHOSPHATE

$$$$

     RDKit          2D

 19 18  0  0  0  0  0  0  0  0999 V2000
    0.1667  -10.3125    0.0000 C   0  0  0  0  0  0  0  0  0  0  0  0
    2.6167  -10.2667    0.0000 N   0  0  0  0  0  0  0  0  0  0  0  0
    0.1750  -11.0167    0.0000 N   0  0  0  0  0  0  0  0  0  0  0  0
    0.7750   -9.9500    0.0000 N   0  0  0  0  0  0  0  0  0  0  0  0
   -0.4583   -9.9667    0.0000 N   0  0  0  0  0  0  0  0  0  0  0  0
    1.4000  -10.2917    0.0000 C   0  0  0  0  0  0  0  0  0  0  0  0
    1.9917   -9.9250    0.0000 C   0  0  0  0  0  0  0  0  0  0  0  0
    3.1167   -9.7625    0.0000 C   0  0  0  0  0  0  0  0  0  0  0  0
    2.6167  -10.9792    0.0000 C   0  0  0  0  0  0  0  0  0  0  0  0
    3.1250  -11.4792    0.0000 C   0  0  0  0  0  0  0  0  0  0  0  0
    3.8250   -9.7667    0.0000 C   0  0  0  0  0  0  0  0  0  0  0  0
    4.3375  -10.9667    0.0000 C   0  0  0  0  0  0  0  0  0  0  0  0
    4.3292  -10.2625    0.0000 C   0  0  0  0  0  0  0  0  0  0  0  0
    3.8375  -11.4792    0.0000 C   0  0  0  0  0  0  0  0  0  0  0  0
    5.9583  -10.8167    0.0000 S   0  0  0  0  0  0  0  0  0  0  0  0
    5.6000  -10.1917    0.0000 O   0  0  0  0  0  0  0  0  0  0  0  0
    6.3042  -10.1917    0.0000 O   0  0  0  0  0  0  0  0  0  0  0  0
    6.5708  -11.1667    0.0000 O   0  0  0  0  0  0  0  0  0  0  0  0
    5.3417  -11.1667    0.0000 O   0  0  0  0  0  0  0  0  0  0  0  0
  2  7  1  0
  3  1  2  0
  4  1  1  0
  5  1  1  0
  6  4  1  0
  7  6  1  0
  8  2  1  0
  9  2  1  0
 10  9  1  0
 11  8  1  0
 12 14  1  0
 13 11  1  0
 14 10  1  0
 13 12  1  0
 16 15  2  0
 17 15  2  0
 18 15  1  0
 19 15  1  0
M  END
> <chembl_id>
CHEMBL1345

> <chembl_pref_name>
GUANETHIDINE MONOSULFATE

$$$$

     RDKit          2D

 12 11  0  0  0  0  0  0  0  0999 V2000
    2.0875    0.2208    0.0000 K   0  0  0  0  0 15  0  0  0  0  0  0
   -0.0292    0.3125    0.0000 C   0  0  0  0  0  0  0  0  0  0  0  0
    0.5833    0.6708    0.0000 C   0  0  0  0  0  0  0  0  0  0  0  0
   -0.0292   -0.4000    0.0000 C   0  0  0  0  0  0  0  0  0  0  0  0
   -0.6417    0.6667    0.0000 C   0  0  0  0  0  0  0  0  0  0  0  0
   -0.6417   -0.7542    0.0000 C   0  0  0  0  0  0  0  0  0  0  0  0
    1.1958    0.3167    0.0000 O   0  0  0  0  0  0  0  0  0  0  0  0
    0.5792    1.3792    0.0000 O   0  0  0  0  0  0  0  0  0  0  0  0
   -1.2542   -0.4000    0.0000 C   0  0  0  0  0  0  0  0  0  0  0  0
    0.5875   -0.7542    0.0000 O   0  0  0  0  0  0  0  0  0  0  0  0
   -1.2542    0.3125    0.0000 C   0  0  0  0  0  0  0  0  0  0  0  0
   -1.8667   -0.7542    0.0000 N   0  0  0  0  0  0  0  0  0  0  0  0
  3  2  1  0
  4  2  1  0
  5  2  2  0
  6  4  2  0
  7  3  1  0
  8  3  2  0
  9  6  1  0
 10  4  1  0
 11  5  1  0
 12  9  1  0
  9 11  2  0
M  CHG  2   1   1   7  -1
M  END
> <chembl_id>
CHEMBL1200584

> <chembl_pref_name>
AMINOSALICYLATE POTASSIUM

$$$$

     RDKit          2D

 20 19  0  0  0  0  0  0  0  0999 V2000
    0.7375    0.8458    0.0000 C   0  0  0  0  0  0  0  0  0  0  0  0
   -0.6583   -0.7917    0.0000 C   0  0  0  0  0  0  0  0  0  0  0  0
    3.5417    0.8625    0.0000 N   0  0  0  0  0  0  0  0  0  0  0  0
   -3.4833   -0.7917    0.0000 N   0  0  0  0  0  0  0  0  0  0  0  0
   -0.6583   -1.6000    0.0000 O   0  0  0  0  0  0  0  0  0  0  0  0
    0.7375    1.6583    0.0000 O   0  0  0  0  0  0  0  0  0  0  0  0
    0.0375   -0.3792    0.0000 C   0  0  0  0  0  0  0  0  0  0  0  0
    0.0375    0.4375    0.0000 C   0  0  0  0  0  0  0  0  0  0  0  0
    1.4375    0.4375    0.0000 O   0  0  0  0  0  0  0  0  0  0  0  0
   -1.3750   -0.3792    0.0000 O   0  0  0  0  0  0  0  0  0  0  0  0
   -2.0833   -0.7917    0.0000 C   0  0  0  0  0  0  0  0  0  0  0  0
    2.1292    0.8625    0.0000 C   0  0  0  0  0  0  0  0  0  0  0  0
   -2.7833   -0.3792    0.0000 C   0  0  0  0  0  0  0  0  0  0  0  0
    2.8417    0.4625    0.0000 C   0  0  0  0  0  0  0  0  0  0  0  0
    4.3417    1.3250    0.0000 C   0  0  0  0  0  0  0  0  0  0  0  0
   -4.3458   -1.3167    0.0000 C   0  0  0  0  0  0  0  0  0  0  0  0
   -3.8958   -0.0667    0.0000 C   0  0  0  0  0  0  0  0  0  0  0  0
   -3.0708   -1.4917    0.0000 C   0  0  0  0  0  0  0  0  0  0  0  0
    3.9542    0.1625    0.0000 C   0  0  0  0  0  0  0  0  0  0  0  0
    3.1375    1.5708    0.0000 C   0  0  0  0  0  0  0  0  0  0  0  0
  2  7  1  0
  3 14  1  0
  4 13  1  0
  5  2  2  0
  6  1  2  0
  7  8  1  0
  8  1  1  0
  9  1  1  0
 10  2  1  0
 11 10  1  0
 12  9  1  0
 13 11  1  0
 14 12  1  0
 15  3  1  0
 16  4  1  0
 17  4  1  0
 18  4  1  0
 19  3  1  0
 20  3  1  0
M  CHG  2   3   1   4   1
M  END
> <chembl_id>
CHEMBL703

> <chembl_pref_name>
SUXAMETHONIUM

$$$$

     RDKit          2D

 21 23  0  0  0  0  0  0  0  0999 V2000
    1.0167   -3.9542    0.0000 C   0  0  0  0  0  0  0  0  0  0  0  0
    1.3667   -3.3375    0.0000 C   0  0  0  0  0  0  0  0  0  0  0  0
    2.4250   -2.7125    0.0000 N   0  0  0  0  0  0  0  0  0  0  0  0
    0.4042   -4.3125    0.0000 C   0  0  0  0  0  0  0  0  0  0  0  0
    2.0708   -3.3292    0.0000 C   0  0  0  0  0  0  0  0  0  0  0  0
    1.6292   -4.3042    0.0000 C   0  0  0  0  0  0  0  0  0  0  0  0
    0.6625   -3.3375    0.0000 O   0  0  0  0  0  0  0  0  0  0  0  0
    2.2042   -2.0417    0.0000 C   0  0  0  0  0  0  0  0  0  0  0  0
    3.1292   -2.7125    0.0000 C   0  0  0  0  0  0  0  0  0  0  0  0
    0.4042   -5.0250    0.0000 C   0  0  0  0  0  0  0  0  0  0  0  0
   -0.2083   -3.9542    0.0000 C   0  0  0  0  0  0  0  0  0  0  0  0
    1.6292   -5.0167    0.0000 C   0  0  0  0  0  0  0  0  0  0  0  0
    2.2417   -3.9500    0.0000 C   0  0  0  0  0  0  0  0  0  0  0  0
    3.3542   -2.0417    0.0000 C   0  0  0  0  0  0  0  0  0  0  0  0
    2.7792   -1.6167    0.0000 C   0  0  0  0  0  0  0  0  0  0  0  0
   -0.2083   -5.3792    0.0000 C   0  0  0  0  0  0  0  0  0  0  0  0
   -0.8208   -4.3125    0.0000 C   0  0  0  0  0  0  0  0  0  0  0  0
    2.8542   -4.3042    0.0000 C   0  0  0  0  0  0  0  0  0  0  0  0
    2.2417   -5.3667    0.0000 C   0  0  0  0  0  0  0  0  0  0  0  0
   -0.8208   -5.0250    0.0000 C   0  0  0  0  0  0  0  0  0  0  0  0
    2.8542   -5.0125    0.0000 C   0  0  0  0  0  0  0  0  0  0  0  0
  2  1  1  0
  3  5  1  0
  4  1  1  0
  5  2  1  0
  6  1  1  0
  7  1  1  0
  8  3  1  0
  9  3  1  0
 10  4  1  0
 11  4  2  0
 12  6  1  0
 13  6  1  0
 14  9  1  0
 15  8  1  0
 16 10  2  0
 17 11  1  0
 18 13  1  0
 19 12  1  0
 20 16  1  0
 21 19  1  0
 21 18  1  0
 20 17  2  0
 15 14  1  0
M  END
> <chembl_id>
CHEMBL86715

> <chembl_pref_name>
PROCYCLIDINE

$$$$

     RDKit          2D

 20 21  0  0  0  0  0  0  0  0999 V2000
   -4.8045    1.0511    0.0000 C   0  0  0  0  0  0  0  0  0  0  0  0
   -5.2894    0.3837    0.0000 C   0  0  0  0  0  0  0  0  0  0  0  0
   -4.8045   -0.2837    0.0000 C   0  0  0  0  0  0  0  0  0  0  0  0
   -4.0199   -0.0288    0.0000 C   0  0  0  0  0  0  0  0  0  0  0  0
   -4.0199    0.7962    0.0000 S   0  0  0  0  0  0  0  0  0  0  0  0
   -3.3524   -0.5137    0.0000 C   0  0  0  0  0  0  0  0  0  0  0  0
   -2.5987   -0.1781    0.0000 C   0  0  0  0  0  0  0  0  0  0  0  0
   -2.5987    0.6469    0.0000 O   0  0  0  0  0  0  0  0  0  0  0  0
   -1.9068   -0.6275    0.0000 N   0  0  0  0  0  0  0  0  0  0  0  0
   -1.1532   -0.2919    0.0000 C   0  0  0  0  0  0  0  0  0  0  0  0
   -0.4387    0.9456    0.0000 C   0  0  0  0  0  0  0  0  0  0  0  0
   -1.1532    0.5331    0.0000 C   0  0  0  0  0  0  0  0  0  0  0  0
   -0.4387   -0.7044    0.0000 B   0  0  0  0  0  0  0  0  0  0  0  0
    0.2758   -0.2919    0.0000 O   0  0  0  0  0  0  0  0  0  0  0  0
    0.2758    0.5331    0.0000 C   0  0  0  0  0  0  0  0  0  0  0  0
    0.9902    0.9456    0.0000 C   0  0  0  0  0  0  0  0  0  0  0  0
    1.6821    0.4963    0.0000 C   0  0  0  0  0  0  0  0  0  0  0  0
   -0.3955   -1.5283    0.0000 O   0  0  0  0  0  0  0  0  0  0  0  0
    2.4172    0.8708    0.0000 O   0  0  0  0  0  0  0  0  0  0  0  0
    1.6390   -0.3276    0.0000 O   0  0  0  0  0  0  0  0  0  0  0  0
  1  2  2  0
  2  3  1  0
  3  4  2  0
  4  5  1  0
  1  5  1  0
  4  6  1  0
  6  7  1  0
  7  8  2  0
  7  9  1  0
 10  9  1  1
 11 12  1  0
 13 14  1  0
 14 15  1  0
 11 15  1  0
 12 10  1  0
 10 13  1  0
 15 16  1  1
 16 17  1  0
 13 18  1  0
 17 19  2  0
 17 20  1  0
M  END
> <chembl_id>
CHEMBL3317857

> <chembl_pref_name>
VABORBACTAM

$$$$

     RDKit          2D

 18 15  0  0  0  0  0  0  0  0999 V2000
    3.2946   -0.8571    0.0000 O   0  0  0  0  0  0  0  0  0  0  0  0
   -2.0348    1.2167    0.0000 C   0  0  0  0  0  0  0  0  0  0  0  0
   -2.0359    0.3893    0.0000 C   0  0  0  0  0  0  0  0  0  0  0  0
   -1.3211   -0.0235    0.0000 C   0  0  0  0  0  0  0  0  0  0  0  0
   -0.6047    0.3898    0.0000 C   0  0  0  0  0  0  0  0  0  0  0  0
   -0.6075    1.2203    0.0000 C   0  0  0  0  0  0  0  0  0  0  0  0
   -1.3229    1.6295    0.0000 C   0  0  0  0  0  0  0  0  0  0  0  0
    0.1054    1.6355    0.0000 C   0  0  0  0  0  0  0  0  0  0  0  0
    0.8214    1.2257    0.0000 C   0  0  0  0  0  0  0  0  0  0  0  0
    0.1023    2.4605    0.0000 C   0  0  0  0  0  0  0  0  0  0  0  0
    0.8245    0.4007    0.0000 O   0  0  0  0  0  0  0  0  0  0  0  0
    1.5343    1.6409    0.0000 O   0  0  0  0  0  0  0  0  0  0  0  0
   -2.7507   -0.0226    0.0000 C   0  0  0  0  0  0  0  0  0  0  0  0
   -3.4649    0.3905    0.0000 C   0  0  0  0  0  0  0  0  0  0  0  0
   -4.1797   -0.0215    0.0000 C   0  0  0  0  0  0  0  0  0  0  0  0
   -3.4642    1.2155    0.0000 C   0  0  0  0  0  0  0  0  0  0  0  0
    2.2083    1.0333    0.0000 Na  0  0  0  0  0 15  0  0  0  0  0  0
    1.8750   -1.1518    0.0000 O   0  0  0  0  0  0  0  0  0  0  0  0
  8  9  1  0
  4  5  2  0
  8 10  1  0
  2  3  2  0
  9 11  2  0
  5  6  1  0
  9 12  1  0
  3 13  1  0
  6  7  2  0
 13 14  1  0
  7  2  1  0
 14 15  1  0
  3  4  1  0
 14 16  1  0
  6  8  1  0
M  CHG  2  12  -1  17   1
M  END
> <chembl_id>
CHEMBL3989408

> <chembl_pref_name>
IBUPROFEN SODIUM

$$$$

     RDKit          2D

  6  6  0  0  0  0  0  0  0  0999 V2000
    1.4667    0.0000    0.0000 N   0  0  0  0  0  0  0  0  0  0  0  0
   -1.3583    0.0000    0.0000 N   0  0  0  0  0  0  0  0  0  0  0  0
    0.7792    1.2500    0.0000 C   0  0  0  0  0  0  0  0  0  0  0  0
   -0.6250    1.2500    0.0000 C   0  0  0  0  0  0  0  0  0  0  0  0
    0.7792   -1.2417    0.0000 C   0  0  0  0  0  0  0  0  0  0  0  0
   -0.6708   -1.2417    0.0000 C   0  0  0  0  0  0  0  0  0  0  0  0
  2  6  1  0
  3  1  1  0
  4  3  1  0
  5  1  1  0
  6  5  1  0
  4  2  1  0
M  END
> <chembl_id>
CHEMBL1412

> <chembl_pref_name>
PIPERAZINE

$$$$

     RDKit          2D

 19 20  0  0  0  0  0  0  0  0999 V2000
    2.3208   -0.5125    0.0000 S   0  0  0  0  0  0  0  0  0  0  0  0
    3.0500   -0.9250    0.0000 C   0  0  0  0  0  0  0  0  0  0  0  0
    1.6208   -0.9250    0.0000 C   0  0  0  0  0  0  0  0  0  0  0  0
    3.7583   -0.5125    0.0000 C   0  0  0  0  0  0  0  0  0  0  0  0
    2.3167    0.3125    0.0000 O   0  0  0  0  0  0  0  0  0  0  0  0
    3.7583    0.3125    0.0000 O   0  0  0  0  0  0  0  0  0  0  0  0
    0.8542   -0.5125    0.0000 C   0  0  0  0  0  0  0  0  0  0  0  0
    1.6083   -1.7542    0.0000 C   0  0  0  0  0  0  0  0  0  0  0  0
    4.4792   -0.9250    0.0000 N   0  0  0  0  0  0  0  0  0  0  0  0
    2.3083   -2.1708    0.0000 C   0  0  0  0  0  0  0  0  0  0  0  0
    0.8833   -2.1708    0.0000 C   0  0  0  0  0  0  0  0  0  0  0  0
    0.1500   -0.9250    0.0000 C   0  0  0  0  0  0  0  0  0  0  0  0
    0.8542    0.3125    0.0000 C   0  0  0  0  0  0  0  0  0  0  0  0
   -0.5792   -0.5125    0.0000 C   0  0  0  0  0  0  0  0  0  0  0  0
    0.1500    0.7208    0.0000 C   0  0  0  0  0  0  0  0  0  0  0  0
    2.3083   -2.9917    0.0000 C   0  0  0  0  0  0  0  0  0  0  0  0
    0.8833   -2.9917    0.0000 C   0  0  0  0  0  0  0  0  0  0  0  0
    1.6083   -3.4167    0.0000 C   0  0  0  0  0  0  0  0  0  0  0  0
   -0.5792    0.3125    0.0000 C   0  0  0  0  0  0  0  0  0  0  0  0
  2  1  1  0
  1  3  1  6
  4  2  1  0
  5  1  1  0
  6  4  2  0
  7  3  1  0
  8  3  1  0
  9  4  1  0
 10  8  1  0
 11  8  2  0
 12  7  1  0
 13  7  2  0
 14 12  2  0
 15 13  1  0
 16 10  2  0
 17 11  1  0
 18 17  2  0
 19 14  1  0
 15 19  2  0
 16 18  1  0
M  CHG  2   1   1   5  -1
M  END
> <chembl_id>
CHEMBL1201192

> <chembl_pref_name>
ARMODAFINIL

$$$$

     RDKit          2D

 16 15  0  0  0  0  0  0  0  0999 V2000
    3.6682    2.0625    0.0000 N   0  0  0  0  0  0  0  0  0  0  0  0
    4.3827    0.8250    0.0000 N   0  0  0  0  0  0  0  0  0  0  0  0
    2.9538    0.8250    0.0000 N   0  0  0  0  0  0  0  0  0  0  0  0
    2.9538    3.3000    0.0000 N   0  0  0  0  0  0  0  0  0  0  0  0
    2.2393    2.0625    0.0000 N   0  0  0  0  0  0  0  0  0  0  0  0
    3.6682    1.2375    0.0000 C   0  0  0  0  0  0  0  0  0  0  0  0
    5.0972   -1.2375    0.0000 C   0  0  0  0  0  0  0  0  0  0  0  0
    2.9538    2.4750    0.0000 C   0  0  0  0  0  0  0  0  0  0  0  0
    5.0972   -0.4125    0.0000 C   0  0  0  0  0  0  0  0  0  0  0  0
    4.3827    0.0000    0.0000 C   0  0  0  0  0  0  0  0  0  0  0  0
    5.8116   -1.6500    0.0000 C   0  0  0  0  0  0  0  0  0  0  0  0
    4.3827   -1.6500    0.0000 C   0  0  0  0  0  0  0  0  0  0  0  0
    5.8116   -2.4750    0.0000 C   0  0  0  0  0  0  0  0  0  0  0  0
    4.3827   -2.4750    0.0000 C   0  0  0  0  0  0  0  0  0  0  0  0
    5.0972   -2.8875    0.0000 C   0  0  0  0  0  0  0  0  0  0  0  0
    0.0000    0.0000    0.0000 Cl  0  0  0  0  0  0  0  0  0  0  0  0
  1  6  1  0
  1  8  1  0
  2  6  1  0
  2 10  1  0
  3  6  2  0
  4  8  2  0
  8  5  1  0
  7  9  1  0
  7 11  2  0
  7 12  1  0
  9 10  1  0
 11 13  1  0
 12 14  2  0
 13 15  2  0
 14 15  1  0
M  END
> <chembl_id>
CHEMBL1528839

> <chembl_pref_name>
PHENFORMIN HYDROCHLORIDE

$$$$

     RDKit          2D

 17 16  0  0  0  0  0  0  0  0999 V2000
    7.2292   -7.8375    0.0000 Cl  0  0  0  0  0  0  0  0  0  0  0  0
    4.6042   -4.9917    0.0000 C   0  0  0  0  0  0  0  0  0  0  0  0
    6.0375   -4.9917    0.0000 C   0  0  0  0  0  0  0  0  0  0  0  0
    5.3167   -4.5792    0.0000 C   0  0  0  0  0  0  0  0  0  0  0  0
    6.7500   -4.5792    0.0000 C   0  0  0  0  0  0  0  0  0  0  0  0
    3.8917   -4.5792    0.0000 C   0  0  0  0  0  0  0  0  0  0  0  0
    7.4625   -4.9917    0.0000 N   0  0  0  0  0  0  0  0  0  0  0  0
    3.1792   -4.9917    0.0000 C   0  0  0  0  0  0  0  0  0  0  0  0
    2.4625   -4.5792    0.0000 O   0  0  0  0  0  0  0  0  0  0  0  0
    4.6042   -5.8167    0.0000 C   0  0  0  0  0  0  0  0  0  0  0  0
    3.8917   -6.2292    0.0000 C   0  0  0  0  0  0  0  0  0  0  0  0
    6.0375   -5.8167    0.0000 C   0  0  0  0  0  0  0  0  0  0  0  0
    5.3167   -3.7542    0.0000 C   0  0  0  0  0  0  0  0  0  0  0  0
    3.1792   -5.8167    0.0000 C   0  0  0  0  0  0  0  0  0  0  0  0
    8.1792   -4.5792    0.0000 C   0  0  0  0  0  0  0  0  0  0  0  0
    7.4625   -5.8167    0.0000 C   0  0  0  0  0  0  0  0  0  0  0  0
    6.0375   -3.3417    0.0000 C   0  0  0  0  0  0  0  0  0  0  0  0
  3  4  1  0
  4  2  1  0
  5  3  1  0
  6  2  2  0
  7  5  1  0
  8  6  1  0
  9  8  1  0
 10  2  1  0
 11 10  2  0
  3 12  1  6
  4 13  1  6
 14 11  1  0
 15  7  1  0
 16  7  1  0
 17 13  1  0
  8 14  2  0
M  END
> <chembl_id>
CHEMBL1201777

> <chembl_pref_name>
TAPENTADOL HYDROCHLORIDE

$$$$

     RDKit          2D

  2  0  0  0  0  0  0  0  0  0999 V2000
    5.2500   -4.8125    0.0000 Cl  0  0  0  0  0  0  0  0  0  0  0  0
    4.3042   -4.7875    0.0000 N   0  0  0  0  0  0  0  0  0  0  0  0
M  END
> <chembl_id>
CHEMBL1200939

> <chembl_pref_name>
AMMONIUM CHLORIDE

$$$$

     RDKit          2D

 15 16  0  0  0  0  0  0  0  0999 V2000
   -0.6419    2.0403    0.0000 N   0  0  0  0  0  0  0  0  0  0  0  0
   -0.6419    1.2153    0.0000 C   0  0  0  0  0  0  0  0  0  0  0  0
    0.0726    0.8028    0.0000 C   0  0  0  0  0  0  0  0  0  0  0  0
   -1.3564    0.8028    0.0000 N   0  0  0  0  0  0  0  0  0  0  0  0
   -2.0709    1.2153    0.0000 O   0  0  0  0  0  0  0  0  0  0  0  0
   -1.3564   -0.0222    0.0000 C   0  0  0  0  0  0  0  0  0  0  0  0
   -2.0709   -0.4347    0.0000 N   0  0  0  0  0  0  0  0  0  0  0  0
   -0.6419   -0.4347    0.0000 N   0  0  0  0  0  0  0  0  0  0  0  0
    0.0726   -0.0222    0.0000 C   0  0  0  0  0  0  0  0  0  0  0  0
    0.7870   -0.4347    0.0000 N   0  0  0  0  0  0  0  0  0  0  0  0
    0.7870   -1.2597    0.0000 C   0  0  0  0  0  0  0  0  0  0  0  0
    1.5015   -0.0222    0.0000 C   0  0  0  0  0  0  0  0  0  0  0  0
    2.2160   -0.4347    0.0000 C   0  0  0  0  0  0  0  0  0  0  0  0
    2.2160   -1.2597    0.0000 C   0  0  0  0  0  0  0  0  0  0  0  0
    1.5015   -1.6722    0.0000 C   0  0  0  0  0  0  0  0  0  0  0  0
  2  1  1  0
  2  3  2  0
  2  4  1  0
  9  3  1  0
  4  5  1  0
  6  4  2  0
  6  7  1  0
  6  8  1  0
  9  8  2  0
  9 10  1  0
 11 10  1  0
 12 10  1  0
 11 15  1  0
 12 13  1  0
 14 13  1  0
 15 14  1  0
M  CHG  2   4   1   5  -1
M  END
> <chembl_id>
CHEMBL802

> <chembl_pref_name>
MINOXIDIL

$$$$

     RDKit          2D

  5  3  0  0  0  0  0  0  0  0999 V2000
   -2.1208   -2.1125    0.0000 K   0  0  0  0  0 15  0  0  0  0  0  0
    1.1292    0.7083    0.0000 C   0  0  0  0  0  0  0  0  0  0  0  0
   -0.1458   -0.0250    0.0000 O   0  0  0  0  0  0  0  0  0  0  0  0
    1.1667    2.2083    0.0000 O   0  0  0  0  0  0  0  0  0  0  0  0
    2.1917   -0.0667    0.0000 O   0  0  0  0  0  0  0  0  0  0  0  0
  3  2  1  0
  4  2  2  0
  5  2  1  0
M  CHG  2   1   1   3  -1
M  END
> <chembl_id>
CHEMBL2106975

> <chembl_pref_name>
POTASSIUM BICARBONATE

$$$$

     RDKit          2D

 19 20  0  0  0  0  0  0  0  0999 V2000
    9.8861  -17.9833    0.0000 C   0  0  0  0  0  0  0  0  0  0  0  0
    9.8849  -18.8107    0.0000 C   0  0  0  0  0  0  0  0  0  0  0  0
   10.5997  -19.2235    0.0000 C   0  0  0  0  0  0  0  0  0  0  0  0
   11.3162  -18.8102    0.0000 C   0  0  0  0  0  0  0  0  0  0  0  0
   11.3133  -17.9797    0.0000 C   0  0  0  0  0  0  0  0  0  0  0  0
   10.5979  -17.5705    0.0000 C   0  0  0  0  0  0  0  0  0  0  0  0
   10.5995  -20.0485    0.0000 N   0  0  0  0  0  0  0  0  0  0  0  0
   10.5955  -16.7455    0.0000 S   0  0  0  0  0  0  0  0  0  0  0  0
   10.5875  -15.9167    0.0000 N   0  0  0  0  0  0  0  0  0  0  0  0
   11.4204  -16.7403    0.0000 O   0  0  0  0  0  0  0  0  0  0  0  0
    9.7705  -16.7546    0.0000 O   0  0  0  0  0  0  0  0  0  0  0  0
   11.2980  -15.4973    0.0000 C   0  0  0  0  0  0  0  0  0  0  0  0
   12.0136  -15.9070    0.0000 N   0  0  0  0  0  0  0  0  0  0  0  0
   12.7236  -15.4884    0.0000 N   0  0  0  0  0  0  0  0  0  0  0  0
   12.7161  -14.6625    0.0000 C   0  0  0  0  0  0  0  0  0  0  0  0
   11.9927  -14.2571    0.0000 C   0  0  0  0  0  0  0  0  0  0  0  0
   11.2857  -14.6781    0.0000 C   0  0  0  0  0  0  0  0  0  0  0  0
   13.4260  -14.2423    0.0000 O   0  0  0  0  0  0  0  0  0  0  0  0
   14.1450  -14.6469    0.0000 C   0  0  0  0  0  0  0  0  0  0  0  0
  4  5  1  0
  8 10  2  0
  2  3  1  0
  8 11  2  0
  5  6  2  0
  9 12  1  0
  6  1  1  0
 12 13  2  0
  1  2  2  0
 13 14  1  0
  3  7  1  0
 14 15  2  0
  3  4  2  0
 15 16  1  0
  6  8  1  0
 16 17  2  0
 17 12  1  0
 15 18  1  0
  8  9  1  0
 18 19  1  0
M  END
> <chembl_id>
CHEMBL268869

> <chembl_pref_name>
SULFAMETHOXYPYRIDAZINE

$$$$

     RDKit          2D

  2  0  0  0  0  0  0  0  0  0999 V2000
    4.2042   -6.3292    0.0000 K   0  0  0  0  0 15  0  0  0  0  0  0
    5.0500   -6.3250    0.0000 Cl  0  0  0  0  0  0  0  0  0  0  0  0
M  CHG  2   1   1   2  -1
M  END
> <chembl_id>
CHEMBL1200731

> <chembl_pref_name>
POTASSIUM CHLORIDE

$$$$

     RDKit          2D

 17 17  0  0  1  0  0  0  0  0999 V2000
    2.3750   -4.7917    0.0000 C   0  0  0  0  0  0  0  0  0  0  0  0
    2.9792   -4.4375    0.0000 C   0  0  0  0  0  0  0  0  0  0  0  0
    3.6000   -4.7750    0.0000 C   0  0  0  0  0  0  0  0  0  0  0  0
    2.3792   -5.5000    0.0000 C   0  0  0  0  0  0  0  0  0  0  0  0
    5.4500   -4.4167    0.0000 N   0  0  0  0  0  0  0  0  0  0  0  0
    3.6292   -5.4792    0.0000 C   0  0  0  0  0  0  0  0  0  0  0  0
    6.0500   -4.7542    0.0000 C   0  0  0  0  0  0  0  0  0  0  0  0
    3.0167   -5.8417    0.0000 C   0  0  0  0  0  0  0  0  0  0  0  0
    4.8292   -4.7542    0.0000 C   0  0  0  0  0  0  0  0  0  0  0  0
    4.2167   -4.4167    0.0000 C   0  0  0  0  0  0  0  0  0  0  0  0
    1.7792   -5.8917    0.0000 O   0  0  0  0  0  0  0  0  0  0  0  0
    1.7500   -4.4542    0.0000 C   0  0  0  0  0  0  0  0  0  0  0  0
    4.2167   -3.7167    0.0000 O   0  0  0  0  0  0  0  0  0  0  0  0
    1.1625   -4.8167    0.0000 O   0  0  0  0  0  0  0  0  0  0  0  0
    6.6667   -4.4167    0.0000 C   0  0  0  0  0  0  0  0  0  0  0  0
    6.0500   -5.5250    0.0000 C   0  0  0  0  0  0  0  0  0  0  0  0
    6.6667   -5.0917    0.0000 C   0  0  0  0  0  0  0  0  0  0  0  0
  2  1  1  0
  3  2  2  0
  4  1  2  0
  5  9  1  0
  6  8  2  0
  7  5  1  0
  8  4  1  0
  9 10  1  0
 10  3  1  0
 11  4  1  0
 12  1  1  0
 10 13  1  1
 14 12  1  0
 15  7  1  0
 16  7  1  0
 17  7  1  0
  6  3  1  0
M  END
> <chembl_id>
CHEMBL1002

> <chembl_pref_name>
LEVOSALBUTAMOL

$$$$

     RDKit          2D

 17 18  0  0  0  0  0  0  0  0999 V2000
   -1.5458   -2.0375    0.0000 C   0  0  0  0  0  0  0  0  0  0  0  0
   -0.6750   -3.0167    0.0000 N   0  0  0  0  0  0  0  0  0  0  0  0
    0.5292   -2.4917    0.0000 N   0  0  0  0  0  0  0  0  0  0  0  0
    0.4042   -1.1917    0.0000 N   0  0  0  0  0  0  0  0  0  0  0  0
   -0.8750   -0.9042    0.0000 C   0  0  0  0  0  0  0  0  0  0  0  0
    1.3917    0.9833    0.0000 C   0  0  0  0  0  0  0  0  0  0  0  0
   -2.8458   -2.1542    0.0000 C   0  0  0  0  0  0  0  0  0  0  0  0
    1.4000   -0.2625    0.0000 C   0  0  0  0  0  0  0  0  0  0  0  0
    0.2667    1.6333    0.0000 C   0  0  0  0  0  0  0  0  0  0  0  0
    2.5292    1.6333    0.0000 C   0  0  0  0  0  0  0  0  0  0  0  0
   -3.3833   -3.3542    0.0000 O   0  0  0  0  0  0  0  0  0  0  0  0
   -3.5958   -1.1000    0.0000 N   0  0  0  0  0  0  0  0  0  0  0  0
    3.6625    0.9708    0.0000 F   0  0  0  0  0  0  0  0  0  0  0  0
   -0.8708    0.9833    0.0000 F   0  0  0  0  0  0  0  0  0  0  0  0
    1.4042    3.5958    0.0000 C   0  0  0  0  0  0  0  0  0  0  0  0
    2.5375    2.9333    0.0000 C   0  0  0  0  0  0  0  0  0  0  0  0
    0.2750    2.9458    0.0000 C   0  0  0  0  0  0  0  0  0  0  0  0
  2  1  1  0
  3  2  2  0
  4  5  1  0
  5  1  2  0
  6  8  1  0
  7  1  1  0
  8  4  1  0
  9  6  1  0
 10  6  2  0
 11  7  2  0
 12  7  1  0
 13 10  1  0
 14  9  1  0
 15 16  2  0
 16 10  1  0
 17  9  2  0
  4  3  1  0
 17 15  1  0
M  END
> <chembl_id>
CHEMBL1201754

> <chembl_pref_name>
RUFINAMIDE

$$$$

     RDKit          2D

 16 16  0  0  1  0  0  0  0  0999 V2000
    0.6917    0.0958    0.0000 C   0  0  0  0  0  0  0  0  0  0  0  0
    1.9167    0.0958    0.0000 C   0  0  0  0  0  0  0  0  0  0  0  0
    1.3042    0.4500    0.0000 C   0  0  0  0  0  0  0  0  0  0  0  0
    2.5292    0.4583    0.0000 C   0  0  0  0  0  0  0  0  0  0  0  0
    0.0792    0.4458    0.0000 C   0  0  0  0  0  0  0  0  0  0  0  0
    3.1417    0.1000    0.0000 N   0  0  0  0  0  0  0  0  0  0  0  0
   -0.5333    0.0875    0.0000 C   0  0  0  0  0  0  0  0  0  0  0  0
   -1.1458    0.4458    0.0000 O   0  0  0  0  0  0  0  0  0  0  0  0
    0.6917   -0.6167    0.0000 C   0  0  0  0  0  0  0  0  0  0  0  0
    0.0792   -0.9750    0.0000 C   0  0  0  0  0  0  0  0  0  0  0  0
    1.9167   -0.6125    0.0000 C   0  0  0  0  0  0  0  0  0  0  0  0
    1.3000    1.1583    0.0000 C   0  0  0  0  0  0  0  0  0  0  0  0
   -0.5333   -0.6167    0.0000 C   0  0  0  0  0  0  0  0  0  0  0  0
    3.7542    0.4583    0.0000 C   0  0  0  0  0  0  0  0  0  0  0  0
    3.1417   -0.6042    0.0000 C   0  0  0  0  0  0  0  0  0  0  0  0
    1.9125    1.5125    0.0000 C   0  0  0  0  0  0  0  0  0  0  0  0
  2  3  1  0
  3  1  1  0
  4  2  1  0
  5  1  2  0
  6  4  1  0
  7  5  1  0
  8  7  1  0
  9  1  1  0
 10  9  2  0
  2 11  1  6
  3 12  1  6
 13 10  1  0
 14  6  1  0
 15  6  1  0
 16 12  1  0
 13  7  2  0
M  END
> <chembl_id>
CHEMBL1201776

> <chembl_pref_name>
TAPENTADOL

$$$$

     RDKit          2D

 12 10  0  0  0  0  0  0  0  0999 V2000
    1.9042   -0.7792    0.0000 Cl  0  0  0  0  0  0  0  0  0  0  0  0
    4.3667   -1.6875    0.0000 C   0  0  0  0  0  0  0  0  0  0  0  0
    1.9042   -1.6875    0.0000 N   0  0  0  0  0  0  0  0  0  0  0  0
    3.7542   -1.3417    0.0000 O   0  0  0  0  0  0  0  0  0  0  0  0
    4.3667   -2.3917    0.0000 O   0  0  0  0  0  0  0  0  0  0  0  0
    4.9917   -1.3375    0.0000 N   0  0  0  0  0  0  0  0  0  0  0  0
    2.5292   -1.3292    0.0000 C   0  0  0  0  0  0  0  0  0  0  0  0
    3.1417   -1.6875    0.0000 C   0  0  0  0  0  0  0  0  0  0  0  0
    2.2542   -2.3000    0.0000 C   0  0  0  0  0  0  0  0  0  0  0  0
    1.5500   -2.3000    0.0000 C   0  0  0  0  0  0  0  0  0  0  0  0
    1.2958   -1.3292    0.0000 C   0  0  0  0  0  0  0  0  0  0  0  0
    3.1417   -2.4000    0.0000 C   0  0  0  0  0  0  0  0  0  0  0  0
  3  7  1  0
  4  2  1  0
  5  2  2  0
  6  2  1  0
  7  8  1  0
  8  4  1  0
  9  3  1  0
 10  3  1  0
 11  3  1  0
 12  8  1  0
M  CHG  2   1  -1   3   1
M  END
> <chembl_id>
CHEMBL1768

> <chembl_pref_name>
BETHANECHOL CHLORIDE

$$$$

     RDKit          2D

 12 11  0  0  0  0  0  0  0  0999 V2000
    4.6125   -5.3667    0.0000 P   0  0  0  0  0  0  0  0  0  0  0  0
    4.2542   -5.9792    0.0000 O   0  0  0  0  0  0  0  0  0  0  0  0
    4.0000   -5.0167    0.0000 S   0  0  0  0  0  0  0  0  0  0  0  0
    4.9625   -5.9792    0.0000 O   0  0  0  0  0  0  0  0  0  0  0  0
    5.2250   -5.0167    0.0000 O   0  0  0  0  0  0  0  0  0  0  0  0
    3.3833   -5.3667    0.0000 C   0  0  0  0  0  0  0  0  0  0  0  0
    2.1583   -5.3667    0.0000 N   0  0  0  0  0  0  0  0  0  0  0  0
   -0.2958   -5.3667    0.0000 N   0  0  0  0  0  0  0  0  0  0  0  0
    0.9292   -5.3667    0.0000 C   0  0  0  0  0  0  0  0  0  0  0  0
    2.7708   -5.0167    0.0000 C   0  0  0  0  0  0  0  0  0  0  0  0
    1.5458   -5.0167    0.0000 C   0  0  0  0  0  0  0  0  0  0  0  0
    0.3167   -5.0167    0.0000 C   0  0  0  0  0  0  0  0  0  0  0  0
  2  1  2  0
  3  1  1  0
  4  1  1  0
  5  1  1  0
  6  3  1  0
  7 10  1  0
  8 12  1  0
  9 11  1  0
 10  6  1  0
 11  7  1  0
 12  9  1  0
M  END
> <chembl_id>
CHEMBL1006

> <chembl_pref_name>
AMIFOSTINE

$$$$

     RDKit          2D

  4  3  0  0  0  0  0  0  0  0999 V2000
    0.0183    0.0000    0.0000 C   0  0  0  0  0  0  0  0  0  0  0  0
    0.4308    0.7145    0.0000 N   0  0  0  0  0  0  0  0  0  0  0  0
    0.4308   -0.7145    0.0000 N   0  0  0  0  0  0  0  0  0  0  0  0
   -0.8067    0.0000    0.0000 N   0  0  0  0  0  0  0  0  0  0  0  0
  1  2  2  0
  1  3  1  0
  1  4  1  0
M  END
> <chembl_id>
CHEMBL821

> <chembl_pref_name>
GUANIDINE

$$$$

     RDKit          2D

 12 11  0  0  0  0  0  0  0  0999 V2000
    4.0875   -4.7667    0.0000 N   0  0  0  0  0  0  0  0  0  0  0  0
    4.7125   -4.4125    0.0000 C   0  0  0  0  0  0  0  0  0  0  0  0
    3.4792   -4.4042    0.0000 N   0  0  0  0  0  0  0  0  0  0  0  0
    4.7167   -3.7042    0.0000 O   0  0  0  0  0  0  0  0  0  0  0  0
    2.8542   -4.7542    0.0000 O   0  0  0  0  0  0  0  0  0  0  0  0
    5.3167   -4.7792    0.0000 N   0  0  0  0  0  0  0  0  0  0  0  0
    4.0792   -5.4667    0.0000 C   0  0  0  0  0  0  0  0  0  0  0  0
    3.4542   -6.5292    0.0000 Cl  0  0  0  0  0  0  0  0  0  0  0  0
    7.1667   -4.4292    0.0000 Cl  0  0  0  0  0  0  0  0  0  0  0  0
    3.4667   -5.8250    0.0000 C   0  0  0  0  0  0  0  0  0  0  0  0
    5.9292   -4.4292    0.0000 C   0  0  0  0  0  0  0  0  0  0  0  0
    6.5542   -4.7792    0.0000 C   0  0  0  0  0  0  0  0  0  0  0  0
  2  1  1  0
  3  1  1  0
  4  2  2  0
  5  3  2  0
  6  2  1  0
  7  1  1  0
  8 10  1  0
  9 12  1  0
 10  7  1  0
 11  6  1  0
 12 11  1  0
M  END
> <chembl_id>
CHEMBL513

> <chembl_pref_name>
CARMUSTINE

$$$$

     RDKit          2D

  4  3  0  0  0  0  0  0  0  0999 V2000
    5.6917   -4.3042    0.0000 O   0  0  0  0  0  0  0  0  0  0  0  0
    5.0792   -4.6792    0.0000 C   0  0  0  0  0  0  0  0  0  0  0  0
    4.4542   -4.3292    0.0000 C   0  0  0  0  0  0  0  0  0  0  0  0
    5.1000   -5.3792    0.0000 C   0  0  0  0  0  0  0  0  0  0  0  0
  2  1  1  0
  3  2  1  0
  4  2  1  0
M  END
> <chembl_id>
CHEMBL582

> <chembl_pref_name>
ISOPROPYL ALCOHOL

$$$$

     RDKit          2D

 19 20  0  0  0  0  0  0  0  0999 V2000
    5.9815    9.0995    0.0000 C   0  0  0  0  0  0  0  0  0  0  0  0
    1.1313    9.0995    0.0000 C   0  0  0  0  0  0  0  0  0  0  0  0
    0.0000    1.3999    0.0000 O   0  0  0  0  0  0  0  0  0  0  0  0
    5.9815    0.7000    0.0000 C   0  0  0  0  0  0  0  0  0  0  0  0
    5.9815    2.0999    0.0000 C   0  0  0  0  0  0  0  0  0  0  0  0
    4.7655    0.0000    0.0000 C   0  0  0  0  0  0  0  0  0  0  0  0
    4.7655    8.3996    0.0000 C   0  0  0  0  0  0  0  0  0  0  0  0
    2.3403    8.3996    0.0000 C   0  0  0  0  0  0  0  0  0  0  0  0
    4.7655    4.1998    0.0000 C   0  0  0  0  0  0  0  0  0  0  0  0
    4.7655    6.9996    0.0000 C   0  0  0  0  0  0  0  0  0  0  0  0
    2.3403    6.9996    0.0000 C   0  0  0  0  0  0  0  0  0  0  0  0
    3.5565    4.8997    0.0000 C   0  0  0  0  0  0  0  0  0  0  0  0
    2.2202    2.5312    0.0000 C   0  0  0  0  0  0  0  0  0  0  0  0
    2.2202    0.2688    0.0000 N   0  0  0  0  0  0  0  0  0  0  0  0
    1.3999    1.3999    0.0000 C   0  0  0  0  0  0  0  0  0  0  0  0
    4.7655    2.7999    0.0000 C   0  0  0  0  0  0  0  0  0  0  0  0
    3.5565    0.7000    0.0000 C   0  0  0  0  0  0  0  0  0  0  0  0
    3.5565    2.0999    0.0000 C   0  0  0  0  0  0  0  0  0  0  0  0
    3.5565    6.2997    0.0000 N   0  0  0  0  0  0  0  0  0  0  0  0
  1  7  1  0
  2  8  1  0
  3 15  2  0
  4  5  1  0
  4  6  2  0
  5 16  2  0
  6 17  1  0
  7 10  1  0
  8 11  1  0
  9 12  1  0
  9 16  1  0
 10 19  1  0
 11 19  1  0
 12 19  1  0
 13 15  1  0
 13 18  1  0
 14 15  1  0
 14 17  1  0
 16 18  1  0
 17 18  2  0
M  END
> <chembl_id>
CHEMBL589

> <chembl_pref_name>
ROPINIROLE

$$$$

     RDKit          2D

 14 14  0  0  0  0  0  0  0  0999 V2000
    1.3667   -4.3917    0.0000 S   0  0  0  0  0  0  0  0  0  0  0  0
    1.9792   -4.7458    0.0000 N   0  0  0  0  0  0  0  0  0  0  0  0
    0.7542   -4.7500    0.0000 C   0  0  0  0  0  0  0  0  0  0  0  0
    2.5917   -4.3875    0.0000 C   0  0  0  0  0  0  0  0  0  0  0  0
    1.7167   -3.7750    0.0000 O   0  0  0  0  0  0  0  0  0  0  0  0
    1.0042   -3.7750    0.0000 O   0  0  0  0  0  0  0  0  0  0  0  0
    2.5917   -3.6792    0.0000 O   0  0  0  0  0  0  0  0  0  0  0  0
    0.7542   -5.4625    0.0000 C   0  0  0  0  0  0  0  0  0  0  0  0
    0.1417   -4.3958    0.0000 C   0  0  0  0  0  0  0  0  0  0  0  0
   -0.4708   -5.4625    0.0000 C   0  0  0  0  0  0  0  0  0  0  0  0
   -1.0833   -5.8167    0.0000 N   0  0  0  0  0  0  0  0  0  0  0  0
   -0.4708   -4.7500    0.0000 C   0  0  0  0  0  0  0  0  0  0  0  0
    0.1417   -5.8167    0.0000 C   0  0  0  0  0  0  0  0  0  0  0  0
    3.2083   -4.7417    0.0000 C   0  0  0  0  0  0  0  0  0  0  0  0
  2  1  1  0
  3  1  1  0
  4  2  1  0
  5  1  2  0
  6  1  2  0
  7  4  2  0
  8  3  1  0
  9  3  2  0
 10 12  2  0
 11 10  1  0
 12  9  1  0
 13  8  2  0
 14  4  1  0
 13 10  1  0
M  END
> <chembl_id>
CHEMBL455

> <chembl_pref_name>
SULFACETAMIDE

$$$$

     RDKit          2D

 15 15  0  0  0  0  0  0  0  0999 V2000
    2.2417   -3.3167    0.0000 C   0  0  0  0  0  0  0  0  0  0  0  0
    2.2500   -2.6042    0.0000 C   0  0  0  0  0  0  0  0  0  0  0  0
    2.8542   -3.6750    0.0000 C   0  0  0  0  0  0  0  0  0  0  0  0
    1.6167   -3.6792    0.0000 C   0  0  0  0  0  0  0  0  0  0  0  0
    2.8542   -4.3917    0.0000 C   0  0  0  0  0  0  0  0  0  0  0  0
    2.8792   -2.2542    0.0000 C   0  0  0  0  0  0  0  0  0  0  0  0
    1.6250   -4.3917    0.0000 C   0  0  0  0  0  0  0  0  0  0  0  0
    1.6292   -2.2542    0.0000 O   0  0  0  0  0  0  0  0  0  0  0  0
    3.3625   -2.5167    0.0000 N   0  0  0  0  0  0  0  0  0  0  0  0
    2.2417   -4.7417    0.0000 C   0  0  0  0  0  0  0  0  0  0  0  0
    3.4792   -3.3042    0.0000 O   0  0  0  0  0  0  0  0  0  0  0  0
    0.9792   -4.7417    0.0000 O   0  0  0  0  0  0  0  0  0  0  0  0
    2.8792   -1.5417    0.0000 C   0  0  0  0  0  0  0  0  0  0  0  0
    4.0917   -3.6417    0.0000 C   0  0  0  0  0  0  0  0  0  0  0  0
    0.3625   -4.3667    0.0000 C   0  0  0  0  0  0  0  0  0  0  0  0
  2  1  1  0
  3  1  1  0
  4  1  2  0
  5  3  2  0
  6  2  1  0
  7  4  1  0
  8  2  1  0
  9  6  1  0
 10  7  2  0
 11  3  1  0
 12  7  1  0
 13  6  1  0
 14 11  1  0
 15 12  1  0
 10  5  1  0
M  END
> <chembl_id>
CHEMBL524

> <chembl_pref_name>
METHOXAMINE

$$$$

     RDKit          2D

  8  7  0  0  0  0  0  0  0  0999 V2000
   -0.7833    0.0625    0.0000 C   0  0  0  0  0  0  0  0  0  0  0  0
    0.6125    0.0625    0.0000 C   0  0  0  0  0  0  0  0  0  0  0  0
   -2.1583    0.0625    0.0000 Cl  0  0  0  0  0  0  0  0  0  0  0  0
   -0.7833   -1.3292    0.0000 Cl  0  0  0  0  0  0  0  0  0  0  0  0
   -0.7833    1.4583    0.0000 Cl  0  0  0  0  0  0  0  0  0  0  0  0
    2.2750    0.0625    0.0000 O   0  0  0  0  0  0  0  0  0  0  0  0
    0.6125    1.5458    0.0000 C   0  0  0  0  0  0  0  0  0  0  0  0
    0.6125   -1.2542    0.0000 C   0  0  0  0  0  0  0  0  0  0  0  0
  2  1  1  0
  3  1  1  0
  4  1  1  0
  5  1  1  0
  6  2  1  0
  7  2  1  0
  8  2  1  0
M  END
> <chembl_id>
CHEMBL1439973

> <chembl_pref_name>
CHLOROBUTANOL

$$$$

     RDKit          2D

 13 12  0  0  1  0  0  0  0  0999 V2000
    4.6667   -4.6500    0.0000 C   0  0  0  0  0  0  0  0  0  0  0  0
    4.0792   -4.9875    0.0000 C   0  0  0  0  0  0  0  0  0  0  0  0
    5.3042   -4.9750    0.0000 C   0  0  0  0  0  0  0  0  0  0  0  0
    3.4500   -4.6542    0.0000 C   0  0  0  0  0  0  0  0  0  0  0  0
    4.6667   -3.9250    0.0000 O   0  0  0  0  0  0  0  0  0  0  0  0
    4.0875   -5.7042    0.0000 O   0  0  0  0  0  0  0  0  0  0  0  0
    6.5417   -4.9667    0.0000 N   0  0  0  0  0  0  0  0  0  0  0  0
    3.4417   -3.9375    0.0000 O   0  0  0  0  0  0  0  0  0  0  0  0
    5.3042   -5.6917    0.0000 O   0  0  0  0  0  0  0  0  0  0  0  0
    5.9042   -4.6292    0.0000 C   0  0  0  0  0  0  0  0  0  0  0  0
    2.2042   -4.6792    0.0000 O   0  0  0  0  0  0  0  0  0  0  0  0
    2.8292   -4.9917    0.0000 C   0  0  0  0  0  0  0  0  0  0  0  0
    7.1625   -4.6167    0.0000 C   0  0  0  0  0  0  0  0  0  0  0  0
  2  1  1  0
  3  1  1  0
  4  2  1  0
  1  5  1  6
  2  6  1  6
  7 10  1  0
  4  8  1  1
  3  9  1  6
 10  3  1  0
 11 12  1  0
 12  4  1  0
 13  7  1  0
M  END
> <chembl_id>
CHEMBL1200570

> <chembl_pref_name>
MEGLUMINE

$$$$

     RDKit          2D

 10  8  0  0  0  0  0  0  0  0999 V2000
    5.5542   -4.2792    0.0000 Cl  0  0  0  0  0  0  0  0  0  0  0  0
    1.9000   -3.8875    0.0000 C   0  0  0  0  0  0  0  0  0  0  0  0
    1.9000   -3.1792    0.0000 O   0  0  0  0  0  0  0  0  0  0  0  0
    3.7167   -5.0000    0.0000 O   0  0  0  0  0  0  0  0  0  0  0  0
    3.7375   -4.2875    0.0000 C   0  0  0  0  0  0  0  0  0  0  0  0
    2.5042   -4.2542    0.0000 C   0  0  0  0  0  0  0  0  0  0  0  0
    1.2750   -4.2375    0.0000 O   0  0  0  0  0  0  0  0  0  0  0  0
    3.1375   -3.9250    0.0000 C   0  0  0  0  0  0  0  0  0  0  0  0
    4.9750   -4.3292    0.0000 N   0  0  0  0  0  0  0  0  0  0  0  0
    4.3625   -3.9542    0.0000 C   0  0  0  0  0  0  0  0  0  0  0  0
  3  2  2  0
  4  5  2  0
  5  8  1  0
  6  2  1  0
  7  2  1  0
  8  6  1  0
  9 10  1  0
 10  5  1  0
M  END
> <chembl_id>
CHEMBL1200582

> <chembl_pref_name>
AMINOLEVULINIC ACID HYDROCHLORIDE

$$$$

     RDKit          2D

 21 22  0  0  0  0  0  0  0  0999 V2000
    5.9750   -6.4000    0.0000 N   0  0  0  0  0  0  0  0  0  0  0  0
    5.3667   -5.3167    0.0000 C   0  0  0  0  0  0  0  0  0  0  0  0
    5.3667   -6.0500    0.0000 C   0  0  0  0  0  0  0  0  0  0  0  0
    6.5917   -6.0375    0.0000 C   0  0  0  0  0  0  0  0  0  0  0  0
    5.9750   -4.9667    0.0000 C   0  0  0  0  0  0  0  0  0  0  0  0
    4.7625   -4.9667    0.0000 C   0  0  0  0  0  0  0  0  0  0  0  0
    4.7625   -4.2792    0.0000 O   0  0  0  0  0  0  0  0  0  0  0  0
    2.2792   -4.2875    0.0000 N   0  0  0  0  0  0  0  0  0  0  0  0
    7.2125   -6.4000    0.0000 O   0  0  0  0  0  0  0  0  0  0  0  0
    1.6667   -3.9500    0.0000 C   0  0  0  0  0  0  0  0  0  0  0  0
    6.5917   -5.3167    0.0000 C   0  0  0  0  0  0  0  0  0  0  0  0
    3.5375   -4.2875    0.0000 C   0  0  0  0  0  0  0  0  0  0  0  0
    4.1250   -3.9292    0.0000 C   0  0  0  0  0  0  0  0  0  0  0  0
    2.9042   -3.9292    0.0000 C   0  0  0  0  0  0  0  0  0  0  0  0
    3.5375   -4.9875    0.0000 O   0  0  0  0  0  0  0  0  0  0  0  0
    4.7625   -6.4042    0.0000 C   0  0  0  0  0  0  0  0  0  0  0  0
    4.1250   -6.0500    0.0000 C   0  0  0  0  0  0  0  0  0  0  0  0
    4.1250   -5.3167    0.0000 C   0  0  0  0  0  0  0  0  0  0  0  0
    1.6667   -3.2500    0.0000 C   0  0  0  0  0  0  0  0  0  0  0  0
    1.0417   -3.5917    0.0000 C   0  0  0  0  0  0  0  0  0  0  0  0
    1.0542   -4.3042    0.0000 C   0  0  0  0  0  0  0  0  0  0  0  0
  2  3  2  0
  3  1  1  0
  4  1  1  0
  5 11  1  0
  6  2  1  0
  7  6  1  0
  8 14  1  0
  9  4  2  0
 10  8  1  0
 11  4  1  0
 12 13  1  0
 13  7  1  0
 14 12  1  0
 15 12  1  0
 16  3  1  0
 17 16  2  0
 18 17  1  0
 19 10  1  0
 20 10  1  0
 21 10  1  0
  5  2  1  0
 18  6  2  0
M  END
> <chembl_id>
CHEMBL839

> <chembl_pref_name>
CARTEOLOL

$$$$

     RDKit          2D

  9  9  0  0  0  0  0  0  0  0999 V2000
   -1.0677    0.2698    0.0000 C   0  0  0  0  0  0  0  0  0  0  0  0
   -1.6512   -0.3135    0.0000 C   0  0  0  0  0  0  0  0  0  0  0  0
   -1.0677   -0.8967    0.0000 C   0  0  0  0  0  0  0  0  0  0  0  0
   -0.4845   -0.3135    0.0000 C   0  0  0  0  0  0  0  0  0  0  0  0
   -0.4859    0.8570    0.0000 N   0  0  0  0  0  0  0  0  0  0  0  0
   -1.4848    0.9852    0.0000 C   0  0  0  0  0  0  0  0  0  0  0  0
   -2.3098    0.9818    0.0000 O   0  0  0  0  0  0  0  0  0  0  0  0
   -1.0753    1.7014    0.0000 O   0  0  0  0  0  0  0  0  0  0  0  0
   -1.0677   -1.7217    0.0000 F   0  0  0  0  0  0  0  0  0  0  0  0
  1  5  1  0
  1  2  1  0
  1  6  1  1
  2  3  1  0
  6  7  2  0
  3  4  1  0
  6  8  1  0
  4  1  1  0
  3  9  1  1
M  ISO  1   9  18
M  END
> <chembl_id>
CHEMBL254468

> <chembl_pref_name>
FLUCICLOVINE F18

$$$$

     RDKit          2D

 15 16  0  0  1  0  0  0  0  0999 V2000
   -1.7458    0.0458    0.0000 N   0  0  0  0  0  0  0  0  0  0  0  0
   -3.1583    0.0458    0.0000 C   0  0  0  0  0  0  0  0  0  0  0  0
   -1.7333   -1.3792    0.0000 C   0  0  0  0  0  0  0  0  0  0  0  0
   -0.3833    0.5000    0.0000 C   0  0  0  0  0  0  0  0  0  0  0  0
    0.4667   -0.6375    0.0000 C   0  0  0  0  0  0  0  0  0  0  0  0
   -0.3625   -1.8000    0.0000 O   0  0  0  0  0  0  0  0  0  0  0  0
   -3.1458   -1.3792    0.0000 C   0  0  0  0  0  0  0  0  0  0  0  0
    0.0417    1.8500    0.0000 C   0  0  0  0  0  0  0  0  0  0  0  0
    1.8917   -0.6417    0.0000 C   0  0  0  0  0  0  0  0  0  0  0  0
   -4.1625    1.0625    0.0000 O   0  0  0  0  0  0  0  0  0  0  0  0
   -0.9208    2.9000    0.0000 O   0  0  0  0  0  0  0  0  0  0  0  0
    1.4292    2.1708    0.0000 O   0  0  0  0  0  0  0  0  0  0  0  0
    2.8167   -1.7292    0.0000 C   0  0  0  0  0  0  0  0  0  0  0  0
    4.2375   -1.7292    0.0000 O   0  0  0  0  0  0  0  0  0  0  0  0
   -1.7333   -2.8000    0.0000 H   0  0  0  0  0  0  0  0  0  0  0  0
  2  1  1  0
  3  1  1  0
  4  1  1  0
  5  4  1  0
  6  3  1  0
  7  3  1  0
  4  8  1  1
  9  5  2  0
 10  2  2  0
 11  8  2  0
 12  8  1  0
 13  9  1  0
 14 13  1  0
  3 15  1  1
  2  7  1  0
  5  6  1  0
M  END
> <chembl_id>
CHEMBL777

> <chembl_pref_name>
CLAVULANIC ACID

$$$$

     RDKit          2D

 15 15  0  0  0  0  0  0  0  0999 V2000
   -4.8938    3.2595    0.0000 C   0  0  0  0  0  0  0  0  0  0  0  0
   -5.7142    3.1733    0.0000 C   0  0  0  0  0  0  0  0  0  0  0  0
   -5.8857    2.3664    0.0000 C   0  0  0  0  0  0  0  0  0  0  0  0
   -5.1713    1.9539    0.0000 N   0  0  0  0  0  0  0  0  0  0  0  0
   -4.5582    2.5059    0.0000 C   0  0  0  0  0  0  0  0  0  0  0  0
   -6.2663    3.7864    0.0000 C   0  0  0  0  0  0  0  0  0  0  0  0
   -7.0632    3.5729    0.0000 C   0  0  0  0  0  0  0  0  0  0  0  0
   -7.6465    4.1562    0.0000 C   0  0  0  0  0  0  0  0  0  0  0  0
   -5.0850    1.1334    0.0000 C   0  0  0  0  0  0  0  0  0  0  0  0
   -4.3314    0.7978    0.0000 C   0  0  0  0  0  0  0  0  0  0  0  0
   -5.7525    0.6485    0.0000 C   0  0  0  0  0  0  0  0  0  0  0  0
   -4.2451   -0.0227    0.0000 O   0  0  0  0  0  0  0  0  0  0  0  0
   -3.6639    1.2827    0.0000 N   0  0  0  0  0  0  0  0  0  0  0  0
   -6.5494    0.8620    0.0000 C   0  0  0  0  0  0  0  0  0  0  0  0
   -3.7512    2.3343    0.0000 O   0  0  0  0  0  0  0  0  0  0  0  0
  1  2  1  0
  1  5  1  0
  2  3  1  0
  3  4  1  0
  4  5  1  0
  2  6  1  6
  6  7  1  0
  7  8  1  0
  9  4  1  6
  9 10  1  0
  9 11  1  0
 10 12  2  0
 10 13  1  0
 11 14  1  0
  5 15  2  0
M  END
> <chembl_id>
CHEMBL607400

> <chembl_pref_name>
BRIVARACETAM

$$$$

     RDKit          2D

 13 15  0  0  0  0  0  0  0  0999 V2000
   -0.0208   -1.7917    0.0000 C   0  0  0  0  0  0  0  0  0  0  0  0
    1.4875    0.8583    0.0000 C   0  0  0  0  0  0  0  0  0  0  0  0
   -1.4958    0.8458    0.0000 C   0  0  0  0  0  0  0  0  0  0  0  0
    0.0667   -0.0167    0.0000 C   0  0  0  0  0  0  0  0  0  0  0  0
   -1.4833   -0.8917    0.0000 C   0  0  0  0  0  0  0  0  0  0  0  0
    1.4917   -0.8542    0.0000 C   0  0  0  0  0  0  0  0  0  0  0  0
   -0.0375    1.7458    0.0000 C   0  0  0  0  0  0  0  0  0  0  0  0
    0.7542   -0.5042    0.0000 C   0  0  0  0  0  0  0  0  0  0  0  0
    0.0625    0.8500    0.0000 C   0  0  0  0  0  0  0  0  0  0  0  0
   -0.7708   -0.3125    0.0000 C   0  0  0  0  0  0  0  0  0  0  0  0
   -0.0208   -3.3792    0.0000 N   0  0  0  0  0  0  0  0  0  0  0  0
   -3.0833    1.7333    0.0000 C   0  0  0  0  0  0  0  0  0  0  0  0
    3.0042    1.7625    0.0000 C   0  0  0  0  0  0  0  0  0  0  0  0
  2  6  1  0
  3  5  1  0
  4  8  1  0
  5  1  1  0
  6  1  1  0
  7  2  1  0
  8  1  1  0
  9  4  1  0
 10  4  1  0
 11  1  1  0
 12  3  1  0
 13  2  1  0
  3 10  1  0
  2  9  1  0
  3  7  1  0
M  END
> <chembl_id>
CHEMBL807

> <chembl_pref_name>
MEMANTINE

$$$$

     RDKit          2D

 13 14  0  0  0  0  0  0  0  0999 V2000
    4.6792   -4.4042    0.0000 C   0  0  0  0  0  0  0  0  0  0  0  0
    5.2875   -4.0500    0.0000 C   0  0  0  0  0  0  0  0  0  0  0  0
    4.6792   -5.1042    0.0000 C   0  0  0  0  0  0  0  0  0  0  0  0
    5.9042   -4.4042    0.0000 C   0  0  0  0  0  0  0  0  0  0  0  0
    5.3000   -5.4667    0.0000 C   0  0  0  0  0  0  0  0  0  0  0  0
    5.9042   -5.1042    0.0000 C   0  0  0  0  0  0  0  0  0  0  0  0
    4.0667   -4.0542    0.0000 N   0  0  0  0  0  0  0  0  0  0  0  0
    5.2792   -3.3375    0.0000 O   0  0  0  0  0  0  0  0  0  0  0  0
    6.5167   -4.0417    0.0000 Cl  0  0  0  0  0  0  0  0  0  0  0  0
    5.3000   -6.1792    0.0000 Cl  0  0  0  0  0  0  0  0  0  0  0  0
    4.0625   -5.4667    0.0000 C   0  0  0  0  0  0  0  0  0  0  0  0
    3.4500   -4.4125    0.0000 C   0  0  0  0  0  0  0  0  0  0  0  0
    3.4417   -5.1250    0.0000 C   0  0  0  0  0  0  0  0  0  0  0  0
  2  1  1  0
  3  1  1  0
  4  2  2  0
  5  3  1  0
  6  5  2  0
  7  1  2  0
  8  2  1  0
  9  4  1  0
 10  5  1  0
 11  3  2  0
 12  7  1  0
 13 12  2  0
 13 11  1  0
  6  4  1  0
M  END
> <chembl_id>
CHEMBL1200596

> <chembl_pref_name>
CHLOROXINE

$$$$

     RDKit          2D

 16 17  0  0  0  0  0  0  0  0999 V2000
    3.7042   -5.3292    0.0000 C   0  0  0  0  0  0  0  0  0  0  0  0
    4.4167   -5.3417    0.0000 C   0  0  0  0  0  0  0  0  0  0  0  0
    3.0917   -5.0042    0.0000 C   0  0  0  0  0  0  0  0  0  0  0  0
    4.7625   -5.9625    0.0000 C   0  0  0  0  0  0  0  0  0  0  0  0
    4.0042   -4.6917    0.0000 N   0  0  0  0  0  0  0  0  0  0  0  0
    3.0917   -4.2917    0.0000 O   0  0  0  0  0  0  0  0  0  0  0  0
    4.4042   -6.5667    0.0000 Cl  0  0  0  0  0  0  0  0  0  0  0  0
    3.7167   -6.0667    0.0000 C   0  0  0  0  0  0  0  0  0  0  0  0
    4.7667   -4.7292    0.0000 C   0  0  0  0  0  0  0  0  0  0  0  0
    2.4792   -5.3542    0.0000 C   0  0  0  0  0  0  0  0  0  0  0  0
    5.4792   -5.9542    0.0000 C   0  0  0  0  0  0  0  0  0  0  0  0
    3.6042   -4.1125    0.0000 C   0  0  0  0  0  0  0  0  0  0  0  0
    3.0917   -6.4250    0.0000 C   0  0  0  0  0  0  0  0  0  0  0  0
    5.4750   -4.7250    0.0000 C   0  0  0  0  0  0  0  0  0  0  0  0
    2.4792   -6.0667    0.0000 C   0  0  0  0  0  0  0  0  0  0  0  0
    5.8292   -5.3500    0.0000 C   0  0  0  0  0  0  0  0  0  0  0  0
  2  1  1  0
  3  1  1  0
  4  2  2  0
  5  1  1  0
  6  3  2  0
  7  4  1  0
  8  1  1  0
  9  2  1  0
 10  3  1  0
 11  4  1  0
 12  5  1  0
 13  8  1  0
 14  9  2  0
 15 13  1  0
 16 14  1  0
 15 10  1  0
 16 11  2  0
M  END
> <chembl_id>
CHEMBL742

> <chembl_pref_name>
KETAMINE

$$$$

     RDKit          2D

  3  2  0  0  0  0  0  0  0  0999 V2000
    4.9795   -2.1214    0.0000 Ra  0  0  0  0  0  2  0  0  0  0  0  0
    5.8045   -2.1214    0.0000 Cl  0  0  0  0  0  0  0  0  0  0  0  0
    4.1545   -2.1214    0.0000 Cl  0  0  0  0  0  0  0  0  0  0  0  0
  1  2  1  0
  1  3  1  0
M  ISO  1   1 223
M  END
> <chembl_id>
CHEMBL2107816

> <chembl_pref_name>
RADIUM RA 223 DICHLORIDE

$$$$

     RDKit          2D

 19 19  0  0  0  0  0  0  0  0999 V2000
    5.4625   -5.7292    0.0000 O   0  0  0  0  0  0  0  0  0  0  0  0
    6.0792   -6.0792    0.0000 C   0  0  0  0  0  0  0  0  0  0  0  0
    3.0042   -5.7667    0.0000 N   0  0  0  0  0  0  0  0  0  0  0  0
    6.7042   -5.7292    0.0000 C   0  0  0  0  0  0  0  0  0  0  0  0
    5.4792   -5.0000    0.0000 C   0  0  0  0  0  0  0  0  0  0  0  0
    4.8667   -4.6292    0.0000 C   0  0  0  0  0  0  0  0  0  0  0  0
    4.2375   -5.7417    0.0000 C   0  0  0  0  0  0  0  0  0  0  0  0
    4.8542   -6.0917    0.0000 C   0  0  0  0  0  0  0  0  0  0  0  0
    3.6250   -6.1042    0.0000 C   0  0  0  0  0  0  0  0  0  0  0  0
    6.7167   -5.0250    0.0000 O   0  0  0  0  0  0  0  0  0  0  0  0
    4.2292   -5.0417    0.0000 O   0  0  0  0  0  0  0  0  0  0  0  0
    2.3917   -6.1250    0.0000 C   0  0  0  0  0  0  0  0  0  0  0  0
    6.1042   -4.6500    0.0000 C   0  0  0  0  0  0  0  0  0  0  0  0
    6.0667   -6.7917    0.0000 C   0  0  0  0  0  0  0  0  0  0  0  0
    7.3125   -6.1042    0.0000 C   0  0  0  0  0  0  0  0  0  0  0  0
    1.7667   -5.7875    0.0000 C   0  0  0  0  0  0  0  0  0  0  0  0
    2.3917   -6.8292    0.0000 C   0  0  0  0  0  0  0  0  0  0  0  0
    7.3000   -6.8125    0.0000 C   0  0  0  0  0  0  0  0  0  0  0  0
    6.6792   -7.1542    0.0000 C   0  0  0  0  0  0  0  0  0  0  0  0
  2  1  1  0
  3  9  1  0
  4  2  1  0
  5 13  1  0
  6  5  2  0
  7  8  1  0
  8  1  1  0
  9  7  1  0
 10  4  1  0
 11  7  1  0
 12  3  1  0
 13 10  1  0
 14  2  2  0
 15  4  2  0
 16 12  1  0
 17 12  1  0
 18 19  2  0
 19 14  1  0
 18 15  1  0
M  END
> <chembl_id>
CHEMBL546

> <chembl_pref_name>
OXPRENOLOL

$$$$

     RDKit          2D

 16 17  0  0  0  0  0  0  0  0999 V2000
   -0.3708   -0.8792    0.0000 C   0  0  0  0  0  0  0  0  0  0  0  0
   -0.7958   -0.3042    0.0000 S   0  0  0  0  0  0  0  0  0  0  0  0
    0.6917   -1.4875    0.0000 N   0  0  0  0  0  0  0  0  0  0  0  0
    0.3375   -0.8750    0.0000 C   0  0  0  0  0  0  0  0  0  0  0  0
   -0.7875   -1.4542    0.0000 C   0  0  0  0  0  0  0  0  0  0  0  0
    1.4042   -1.4792    0.0000 C   0  0  0  0  0  0  0  0  0  0  0  0
   -1.4708   -0.5292    0.0000 C   0  0  0  0  0  0  0  0  0  0  0  0
   -1.4625   -1.2417    0.0000 C   0  0  0  0  0  0  0  0  0  0  0  0
    1.7542   -0.8667    0.0000 O   0  0  0  0  0  0  0  0  0  0  0  0
    1.7625   -2.0917    0.0000 N   0  0  0  0  0  0  0  0  0  0  0  0
    0.3417   -2.1042    0.0000 O   0  0  0  0  0  0  0  0  0  0  0  0
    0.6875   -0.2542    0.0000 C   0  0  0  0  0  0  0  0  0  0  0  0
   -2.0833   -0.1792    0.0000 C   0  0  0  0  0  0  0  0  0  0  0  0
   -2.0833   -1.6000    0.0000 C   0  0  0  0  0  0  0  0  0  0  0  0
   -2.6958   -0.5375    0.0000 C   0  0  0  0  0  0  0  0  0  0  0  0
   -2.6958   -1.2417    0.0000 C   0  0  0  0  0  0  0  0  0  0  0  0
  2  1  1  0
  3  4  1  0
  4  1  1  0
  5  1  2  0
  6  3  1  0
  7  2  1  0
  8  5  1  0
  9  6  2  0
 10  6  1  0
 11  3  1  0
 12  4  1  0
 13  7  2  0
 14  8  2  0
 15 13  1  0
 16 14  1  0
  8  7  1  0
 16 15  2  0
M  END
> <chembl_id>
CHEMBL93

> <chembl_pref_name>
ZILEUTON

$$$$

     RDKit          2D

 21 24  0  0  1  0  0  0  0  0999 V2000
    6.0109  -10.9653    0.0000 C   0  0  0  0  0  0  0  0  0  0  0  0
    5.2118  -10.9679    0.0000 C   0  0  0  0  0  0  0  0  0  0  0  0
    6.0148   -9.5717    0.0000 C   0  0  0  0  0  0  0  0  0  0  0  0
    6.4124  -10.2720    0.0000 C   0  0  0  0  0  0  0  0  0  0  0  0
    6.4163   -8.8688    0.0000 N   0  0  0  0  0  0  0  0  0  0  0  0
    4.8094  -10.2676    0.0000 C   0  0  0  0  0  0  0  0  0  0  0  0
    5.2014   -9.5694    0.0000 C   0  0  0  0  0  0  0  0  0  0  0  0
    5.6085  -10.2555    0.0000 C   0  0  0  0  0  0  0  0  0  0  0  0
    5.6029   -8.8666    0.0000 C   0  0  0  0  0  0  0  0  0  0  0  0
    4.8055  -11.6660    0.0000 C   0  0  0  0  0  0  0  0  0  0  0  0
    4.0008  -10.2653    0.0000 C   0  0  0  0  0  0  0  0  0  0  0  0
    3.9969  -11.6637    0.0000 C   0  0  0  0  0  0  0  0  0  0  0  0
    6.4085  -11.6562    0.0000 C   0  0  0  0  0  0  0  0  0  0  0  0
    3.5993  -10.9634    0.0000 C   0  0  0  0  0  0  0  0  0  0  0  0
    7.1118   -8.4618    0.0000 C   0  0  0  0  0  0  0  0  0  0  0  0
    7.2115  -10.2695    0.0000 C   0  0  0  0  0  0  0  0  0  0  0  0
    3.5906  -12.3618    0.0000 O   0  0  0  0  0  0  0  0  0  0  0  0
    7.2076  -11.6584    0.0000 C   0  0  0  0  0  0  0  0  0  0  0  0
    7.6091  -10.9603    0.0000 C   0  0  0  0  0  0  0  0  0  0  0  0
    6.9141   -9.4070    0.0000 H   0  0  0  0  0  0  0  0  0  0  0  0
    5.5140   -8.7061    0.0000 H   0  0  0  0  0  0  0  0  0  0  0  0
  2  1  1  0
  3  4  1  0
  4  1  1  0
  5  9  1  0
  6  2  2  0
  7  3  1  0
  1  8  1  1
  9  8  1  0
 10  2  1  0
 11  6  1  0
 12 10  2  0
 13  1  1  0
 14 11  2  0
 15  5  1  0
 16  4  1  0
 17 12  1  0
 18 13  1  0
 19 16  1  0
  3  5  1  0
  7  6  1  0
 18 19  1  0
 12 14  1  0
  4 20  1  1
  3 21  1  6
M  END
> <chembl_id>
CHEMBL592

> <chembl_pref_name>
LEVORPHANOL

$$$$

     RDKit          2D

 16 17  0  0  1  0  0  0  0  0999 V2000
    3.9417   -0.6292    0.0000 S   0  0  0  0  0  0  0  0  0  0  0  0
    3.2667   -1.5542    0.0000 N   0  0  0  0  0  0  0  0  0  0  0  0
    4.3583   -1.2042    0.0000 C   0  0  0  0  0  0  0  0  0  0  0  0
    3.2667   -0.8500    0.0000 C   0  0  0  0  0  0  0  0  0  0  0  0
    3.9417   -1.7750    0.0000 C   0  0  0  0  0  0  0  0  0  0  0  0
    2.5625   -1.5542    0.0000 C   0  0  0  0  0  0  0  0  0  0  0  0
    2.5625   -0.8500    0.0000 C   0  0  0  0  0  0  0  0  0  0  0  0
    3.9375   -2.4792    0.0000 C   0  0  0  0  0  0  0  0  0  0  0  0
    3.5792   -0.0125    0.0000 O   0  0  0  0  0  0  0  0  0  0  0  0
    4.2917   -0.0125    0.0000 O   0  0  0  0  0  0  0  0  0  0  0  0
    2.0583   -2.0583    0.0000 O   0  0  0  0  0  0  0  0  0  0  0  0
    4.5458   -2.8417    0.0000 O   0  0  0  0  0  0  0  0  0  0  0  0
    3.3167   -2.8292    0.0000 O   0  0  0  0  0  0  0  0  0  0  0  0
    4.9667   -1.5542    0.0000 C   0  0  0  0  0  0  0  0  0  0  0  0
    4.9667   -0.8417    0.0000 C   0  0  0  0  0  0  0  0  0  0  0  0
    3.2625   -0.1375    0.0000 H   0  0  0  0  0  0  0  0  0  0  0  0
  2  4  1  0
  3  1  1  0
  4  1  1  0
  5  3  1  0
  6  7  1  0
  7  4  1  0
  5  8  1  6
  9  1  2  0
 10  1  2  0
 11  6  2  0
 12  8  1  0
 13  8  2  0
 14  3  1  0
 15  3  1  0
  4 16  1  6
  5  2  1  0
  2  6  1  0
M  END
> <chembl_id>
CHEMBL403

> <chembl_pref_name>
SULBACTAM

$$$$

     RDKit          2D

 18 19  0  0  0  0  0  0  0  0999 V2000
   -8.0259    0.7470    0.0000 C   0  0  0  0  0  0  0  0  0  0  0  0
   -8.7404    0.3345    0.0000 C   0  0  0  0  0  0  0  0  0  0  0  0
   -8.7404   -0.4904    0.0000 C   0  0  0  0  0  0  0  0  0  0  0  0
   -8.0259   -0.9029    0.0000 C   0  0  0  0  0  0  0  0  0  0  0  0
   -7.3115   -0.4904    0.0000 C   0  0  0  0  0  0  0  0  0  0  0  0
   -7.3115    0.3345    0.0000 C   0  0  0  0  0  0  0  0  0  0  0  0
   -6.6196   -0.9397    0.0000 Cl  0  0  0  0  0  0  0  0  0  0  0  0
   -6.5970    0.7470    0.0000 C   0  0  0  0  0  0  0  0  0  0  0  0
   -5.8825    0.3345    0.0000 C   0  0  0  0  0  0  0  0  0  0  0  0
   -6.5970    1.5720    0.0000 O   0  0  0  0  0  0  0  0  0  0  0  0
   -7.3114    1.9845    0.0000 C   0  0  0  0  0  0  0  0  0  0  0  0
   -8.0259    1.5720    0.0000 O   0  0  0  0  0  0  0  0  0  0  0  0
   -7.3114    2.8095    0.0000 N   0  0  0  0  0  0  0  0  0  0  0  0
   -5.1680    0.7470    0.0000 N   0  0  0  0  0  0  0  0  0  0  0  0
   -5.0818    1.5675    0.0000 N   0  0  0  0  0  0  0  0  0  0  0  0
   -4.4144    0.4115    0.0000 N   0  0  0  0  0  0  0  0  0  0  0  0
   -3.8624    1.0246    0.0000 C   0  0  0  0  0  0  0  0  0  0  0  0
   -4.2748    1.7390    0.0000 N   0  0  0  0  0  0  0  0  0  0  0  0
  1  2  2  0
  2  3  1  0
  3  4  2  0
  4  5  1  0
  5  6  2  0
  1  6  1  0
  5  7  1  0
  6  8  1  0
  8  9  1  0
  8 10  1  1
 10 11  1  0
 11 12  2  0
 11 13  1  0
  9 14  1  0
 16 17  2  0
 17 18  1  0
 15 18  2  0
 15 14  1  0
 14 16  1  0
M  END
> <chembl_id>
CHEMBL3989949

> <chembl_pref_name>
CENOBAMATE

$$$$

     RDKit          2D

 22 24  0  0  0  0  0  0  0  0999 V2000
   -0.0250    0.1750    0.0000 N   0  0  0  0  0  0  0  0  0  0  0  0
   -0.8875    0.6875    0.0000 N   0  0  0  0  0  0  0  0  0  0  0  0
   -0.0250   -0.8042    0.0000 C   0  0  0  0  0  0  0  0  0  0  0  0
   -1.7625    0.2125    0.0000 C   0  0  0  0  0  0  0  0  0  0  0  0
   -0.9208   -1.2917    0.0000 C   0  0  0  0  0  0  0  0  0  0  0  0
   -1.7625   -0.8000    0.0000 C   0  0  0  0  0  0  0  0  0  0  0  0
    2.5375    0.6208    0.0000 N   0  0  0  0  0  0  0  0  0  0  0  0
   -2.6000    0.7083    0.0000 C   0  0  0  0  0  0  0  0  0  0  0  0
    0.8167   -1.3167    0.0000 N   0  0  0  0  0  0  0  0  0  0  0  0
    4.2375    1.5208    0.0000 O   0  0  0  0  0  0  0  0  0  0  0  0
    1.6667   -0.8417    0.0000 C   0  0  0  0  0  0  0  0  0  0  0  0
    1.6542    0.1333    0.0000 C   0  0  0  0  0  0  0  0  0  0  0  0
    2.5292    1.6458    0.0000 C   0  0  0  0  0  0  0  0  0  0  0  0
    3.3750    0.1333    0.0000 C   0  0  0  0  0  0  0  0  0  0  0  0
   -0.9208   -2.2167    0.0000 C   0  0  0  0  0  0  0  0  0  0  0  0
    3.3917    2.0708    0.0000 C   0  0  0  0  0  0  0  0  0  0  0  0
    4.2417    0.5708    0.0000 C   0  0  0  0  0  0  0  0  0  0  0  0
   -2.6000    1.7083    0.0000 C   0  0  0  0  0  0  0  0  0  0  0  0
   -3.4833    0.2333    0.0000 C   0  0  0  0  0  0  0  0  0  0  0  0
   -3.4625    2.2208    0.0000 C   0  0  0  0  0  0  0  0  0  0  0  0
   -4.3458    0.7458    0.0000 C   0  0  0  0  0  0  0  0  0  0  0  0
   -4.3458    1.7458    0.0000 C   0  0  0  0  0  0  0  0  0  0  0  0
  2  1  2  0
  3  1  1  0
  4  2  1  0
  5  3  2  0
  6  5  1  0
  7 12  1  0
  8  4  1  0
  9  3  1  0
 10 17  1  0
 11  9  1  0
 12 11  1  0
 13  7  1  0
 14  7  1  0
 15  5  1  0
 16 13  1  0
 17 14  1  0
 18  8  2  0
 19  8  1  0
 20 18  1  0
 21 19  2  0
 22 21  1  0
  4  6  2  0
 20 22  2  0
 16 10  1  0
M  END
> <chembl_id>
CHEMBL278819

> <chembl_pref_name>
MINAPRINE

$$$$

     RDKit          2D

 19 19  0  0  0  0  0  0  0  0999 V2000
   -1.7875    0.3708    0.0000 C   0  0  0  0  0  0  0  0  0  0  0  0
   -0.9625   -0.7917    0.0000 C   0  0  0  0  0  0  0  0  0  0  0  0
   -3.1625   -0.0875    0.0000 S   0  0  0  0  0  0  0  0  0  0  0  0
    0.4542   -0.7917    0.0000 N   0  0  0  0  0  0  0  0  0  0  0  0
   -1.7875   -1.9000    0.0000 C   0  0  0  0  0  0  0  0  0  0  0  0
    1.1542   -2.0292    0.0000 C   0  0  0  0  0  0  0  0  0  0  0  0
   -1.3333    1.7208    0.0000 C   0  0  0  0  0  0  0  0  0  0  0  0
   -3.1458   -1.4417    0.0000 C   0  0  0  0  0  0  0  0  0  0  0  0
    0.4292   -3.2375    0.0000 O   0  0  0  0  0  0  0  0  0  0  0  0
   -2.2625    2.7833    0.0000 O   0  0  0  0  0  0  0  0  0  0  0  0
    2.5542   -2.0167    0.0000 C   0  0  0  0  0  0  0  0  0  0  0  0
    0.0292    1.9875    0.0000 O   0  0  0  0  0  0  0  0  0  0  0  0
    3.2792   -0.8250    0.0000 N   0  0  0  0  0  0  0  0  0  0  0  0
   -1.3625   -3.2375    0.0000 C   0  0  0  0  0  0  0  0  0  0  0  0
    2.5667    0.3958    0.0000 C   0  0  0  0  0  0  0  0  0  0  0  0
    3.2417   -3.2667    0.0000 C   0  0  0  0  0  0  0  0  0  0  0  0
    0.6042    3.5958    0.0000 C   0  0  0  0  0  0  0  0  0  0  0  0
    3.2542    1.6333    0.0000 C   0  0  0  0  0  0  0  0  0  0  0  0
    2.5667    2.8833    0.0000 C   0  0  0  0  0  0  0  0  0  0  0  0
  2  1  2  0
  3  1  1  0
  4  2  1  0
  5  2  1  0
  6  4  1  0
  7  1  1  0
  8  3  1  0
  9  6  2  0
 10  7  2  0
 11  6  1  0
 12  7  1  0
 13 11  1  0
 14  5  1  0
 15 13  1  0
 16 11  1  0
 17 12  1  0
 18 15  1  0
 19 18  1  0
  5  8  2  0
M  END
> <chembl_id>
CHEMBL1093

> <chembl_pref_name>
ARTICAINE

$$$$

     RDKit          2D

 23 26  0  0  0  0  0  0  0  0999 V2000
    5.5609  -10.3986    0.0000 C   0  0  0  0  0  0  0  0  0  0  0  0
    4.7646  -10.4058    0.0000 C   0  0  0  0  0  0  0  0  0  0  0  0
    4.7640   -9.0242    0.0000 C   0  0  0  0  0  0  0  0  0  0  0  0
    4.3713   -9.7140    0.0000 C   0  0  0  0  0  0  0  0  0  0  0  0
    3.5794   -9.7178    0.0000 C   0  0  0  0  0  0  0  0  0  0  0  0
    3.1793   -9.0325    0.0000 C   0  0  0  0  0  0  0  0  0  0  0  0
    3.5768   -8.3421    0.0000 C   0  0  0  0  0  0  0  0  0  0  0  0
    4.3675   -8.3417    0.0000 C   0  0  0  0  0  0  0  0  0  0  0  0
    5.9635  -11.0858    0.0000 N   0  0  0  0  0  0  0  0  0  0  0  0
    5.5695  -11.7779    0.0000 C   0  0  0  0  0  0  0  0  0  0  0  0
    5.9722  -12.4651    0.0000 C   0  0  0  0  0  0  0  0  0  0  0  0
    5.5781  -13.1573    0.0000 C   0  0  0  0  0  0  0  0  0  0  0  0
    5.9567   -9.7076    0.0000 C   0  0  0  0  0  0  0  0  0  0  0  0
    5.5560   -9.0279    0.0000 C   0  0  0  0  0  0  0  0  0  0  0  0
    5.9419   -8.3446    0.0000 C   0  0  0  0  0  0  0  0  0  0  0  0
    6.7304   -8.3352    0.0000 C   0  0  0  0  0  0  0  0  0  0  0  0
    7.1314   -9.0148    0.0000 C   0  0  0  0  0  0  0  0  0  0  0  0
    6.7436   -9.7041    0.0000 C   0  0  0  0  0  0  0  0  0  0  0  0
    6.6108  -10.6676    0.0000 C   0  0  0  0  0  0  0  0  0  0  0  0
    6.6114   -9.0135    0.0000 C   0  0  0  0  0  0  0  0  0  0  0  0
    5.1568   -9.7112    0.0000 H   0  0  0  0  0  0  0  0  0  0  0  0
    3.1780   -7.6527    0.0000 O   0  0  0  0  0  0  0  0  0  0  0  0
    5.1583  -11.0912    0.0000 H   0  0  0  0  0  0  0  0  0  0  0  0
  9 19  1  0
  3 14  1  0
 14 20  1  6
 19 20  1  0
  7  8  2  0
 13 21  1  6
  8  3  1  0
  7 22  1  0
 13  1  1  0
  1  9  1  0
  1  2  1  0
  9 10  1  0
 10 11  1  0
 11 12  2  0
 13 14  1  0
  3  4  2  0
  1 23  1  1
  4  5  1  0
  5  6  2  0
  4  2  1  0
 13 18  1  0
 14 15  1  0
 15 16  1  0
 16 17  1  0
 17 18  1  0
  6  7  1  0
M  END
> <chembl_id>
CHEMBL1254682

> <chembl_pref_name>
LEVALLORPHAN

$$$$

     RDKit          2D

  9  8  0  0  0  0  0  0  0  0999 V2000
   12.1089   -0.1346    0.0000 C   0  0  0  0  0  0  0  0  0  0  0  0
   12.1089    0.6771    0.0000 O   0  0  0  0  0  0  0  0  0  0  0  0
   11.3355   -0.4115    0.0000 C   0  0  0  0  0  0  0  0  0  0  0  0
   12.7821   -0.6120    0.0000 O   0  0  0  0  0  0  0  0  0  0  0  0
   11.3187   -1.2160    0.0000 N   0  0  0  0  0  0  0  0  0  0  0  0
    9.3565    0.4097    0.0000 Se  0  0  0  0  0  2  0  0  0  0  0  0
   10.6527    0.0516    0.0000 C   0  0  0  0  0  0  0  0  0  0  0  0
    9.8745   -0.2277    0.0000 C   0  0  0  0  0  0  0  0  0  0  0  0
    8.5782    0.1375    0.0000 C   0  0  0  0  0  0  0  0  0  0  0  0
  2  1  2  0
  3  1  1  0
  4  1  1  0
  3  5  1  1
  6  8  1  0
  7  3  1  0
  8  7  1  0
  9  6  1  0
M  ISO  1   6  75
M  END
> <chembl_id>
CHEMBL1201054

> <chembl_pref_name>
SELENOMETHIONINE SE 75

$$$$

     RDKit          2D

 13 13  0  0  0  0  0  0  0  0999 V2000
   -2.5458   -9.4750    0.0000 C   0  0  0  0  0  0  0  0  0  0  0  0
   -3.3708   -9.4750    0.0000 C   0  0  0  0  0  0  0  0  0  0  0  0
   -2.2875   -8.6917    0.0000 C   0  0  0  0  0  0  0  0  0  0  0  0
   -3.6208   -8.6917    0.0000 C   0  0  0  0  0  0  0  0  0  0  0  0
   -2.9583   -8.2042    0.0000 O   0  0  0  0  0  0  0  0  0  0  0  0
   -4.3583   -8.3125    0.0000 C   0  0  0  0  0  0  0  0  0  0  0  0
   -1.5000   -8.4375    0.0000 O   0  0  0  0  0  0  0  0  0  0  0  0
   -2.0583  -10.1417    0.0000 O   0  0  0  0  0  0  0  0  0  0  0  0
   -3.8500  -10.1417    0.0000 O   0  0  0  0  0  0  0  0  0  0  0  0
   -5.0500   -8.7542    0.0000 O   0  0  0  0  0  0  0  0  0  0  0  0
   -3.6958   -7.0417    0.0000 O   0  0  0  0  0  0  0  0  0  0  0  0
   -4.3958   -7.4875    0.0000 C   0  0  0  0  0  0  0  0  0  0  0  0
   -4.2083   -9.2667    0.0000 H   0  0  0  0  0  0  0  0  0  0  0  0
  2  1  2  0
  3  1  1  0
  4  2  1  0
  5  3  1  0
  6  4  1  0
  7  3  2  0
  8  1  1  0
  9  2  1  0
  6 10  1  1
 11 12  1  0
 12  6  1  0
  4 13  1  6
  5  4  1  0
M  END
> <chembl_id>
CHEMBL196

> <chembl_pref_name>
ASCORBIC ACID

$$$$

     RDKit          2D

 12 12  0  0  1  0  0  0  0  0999 V2000
    4.5292   -7.4917    0.0000 C   0  0  0  0  0  0  0  0  0  0  0  0
    3.9167   -7.1500    0.0000 C   0  0  0  0  0  0  0  0  0  0  0  0
    5.1375   -7.1417    0.0000 C   0  0  0  0  0  0  0  0  0  0  0  0
    3.3042   -7.5000    0.0000 C   0  0  0  0  0  0  0  0  0  0  0  0
    6.3750   -7.1292    0.0000 N   0  0  0  0  0  0  0  0  0  0  0  0
    5.1375   -6.4375    0.0000 O   0  0  0  0  0  0  0  0  0  0  0  0
    2.6792   -7.1542    0.0000 O   0  0  0  0  0  0  0  0  0  0  0  0
    4.5375   -8.2125    0.0000 C   0  0  0  0  0  0  0  0  0  0  0  0
    3.9167   -8.5625    0.0000 C   0  0  0  0  0  0  0  0  0  0  0  0
    5.7625   -7.4917    0.0000 C   0  0  0  0  0  0  0  0  0  0  0  0
    3.3042   -8.2125    0.0000 C   0  0  0  0  0  0  0  0  0  0  0  0
    6.9917   -7.4792    0.0000 C   0  0  0  0  0  0  0  0  0  0  0  0
  2  1  2  0
  3  1  1  0
  4  2  1  0
  5 10  1  0
  3  6  1  1
  7  4  1  0
  8  1  1  0
  9  8  2  0
 10  3  1  0
 11  9  1  0
 12  5  1  0
 11  4  2  0
M  END
> <chembl_id>
CHEMBL1215

> <chembl_pref_name>
PHENYLEPHRINE

$$$$

     RDKit          2D

 12 12  0  0  0  0  0  0  0  0999 V2000
    6.9806  -20.2986    0.0000 C   0  0  0  0  0  0  0  0  0  0  0  0
    7.6994  -20.7100    0.0000 C   0  0  0  0  0  0  0  0  0  0  0  0
    6.9806  -19.4797    0.0000 C   0  0  0  0  0  0  0  0  0  0  0  0
    6.2642  -20.7100    0.0000 Cl  0  0  0  0  0  0  0  0  0  0  0  0
    8.4037  -20.2986    0.0000 C   0  0  0  0  0  0  0  0  0  0  0  0
    7.6913  -21.5411    0.0000 Cl  0  0  0  0  0  0  0  0  0  0  0  0
    7.6994  -19.0683    0.0000 C   0  0  0  0  0  0  0  0  0  0  0  0
    6.2642  -19.0683    0.0000 Cl  0  0  0  0  0  0  0  0  0  0  0  0
    8.4037  -19.4736    0.0000 C   0  0  0  0  0  0  0  0  0  0  0  0
    9.1247  -20.7040    0.0000 Cl  0  0  0  0  0  0  0  0  0  0  0  0
    7.6994  -18.2312    0.0000 Cl  0  0  0  0  0  0  0  0  0  0  0  0
    9.1247  -19.0601    0.0000 Cl  0  0  0  0  0  0  0  0  0  0  0  0
  1  2  1  0
  1  3  1  0
  1  4  1  6
  2  5  1  0
  2  6  1  6
  3  7  1  0
  3  8  1  1
  5  9  1  0
  5 10  1  1
  7 11  1  6
  9 12  1  6
  7  9  1  0
M  END
> <chembl_id>
CHEMBL15891

> <chembl_pref_name>
LINDANE

$$$$

     RDKit          2D

 20 21  0  0  0  0  0  0  0  0999 V2000
    2.4125   -5.6125    0.0000 C   0  0  0  0  0  0  0  0  0  0  0  0
    3.0167   -5.2417    0.0000 C   0  0  0  0  0  0  0  0  0  0  0  0
    1.7917   -5.2750    0.0000 C   0  0  0  0  0  0  0  0  0  0  0  0
    3.6500   -5.5792    0.0000 C   0  0  0  0  0  0  0  0  0  0  0  0
    2.9875   -4.5292    0.0000 O   0  0  0  0  0  0  0  0  0  0  0  0
    1.7042   -3.1667    0.0000 N   0  0  0  0  0  0  0  0  0  0  0  0
    2.3542   -4.1917    0.0000 C   0  0  0  0  0  0  0  0  0  0  0  0
    2.4292   -6.3292    0.0000 C   0  0  0  0  0  0  0  0  0  0  0  0
    2.3292   -3.4917    0.0000 C   0  0  0  0  0  0  0  0  0  0  0  0
    1.7917   -4.5625    0.0000 C   0  0  0  0  0  0  0  0  0  0  0  0
    1.1750   -5.6542    0.0000 C   0  0  0  0  0  0  0  0  0  0  0  0
    4.2417   -5.2042    0.0000 C   0  0  0  0  0  0  0  0  0  0  0  0
    3.6542   -6.3042    0.0000 C   0  0  0  0  0  0  0  0  0  0  0  0
    1.1375   -3.5542    0.0000 C   0  0  0  0  0  0  0  0  0  0  0  0
    1.6792   -2.4750    0.0000 C   0  0  0  0  0  0  0  0  0  0  0  0
    1.8417   -6.6917    0.0000 C   0  0  0  0  0  0  0  0  0  0  0  0
    1.1917   -6.3542    0.0000 C   0  0  0  0  0  0  0  0  0  0  0  0
    4.8750   -5.5417    0.0000 C   0  0  0  0  0  0  0  0  0  0  0  0
    4.3042   -6.6375    0.0000 C   0  0  0  0  0  0  0  0  0  0  0  0
    4.9000   -6.2542    0.0000 C   0  0  0  0  0  0  0  0  0  0  0  0
  2  1  1  0
  3  1  2  0
  4  2  1  0
  5  2  1  0
  6  9  1  0
  7  5  1  0
  8  1  1  0
  9  7  1  0
 10  3  1  0
 11  3  1  0
 12  4  1  0
 13  4  2  0
 14  6  1  0
 15  6  1  0
 16  8  2  0
 17 16  1  0
 18 12  2  0
 19 13  1  0
 20 19  2  0
 17 11  2  0
 20 18  1  0
M  END
> <chembl_id>
CHEMBL900

> <chembl_pref_name>
ORPHENADRINE

$$$$

     RDKit          2D

 18 19  0  0  0  0  0  0  0  0999 V2000
   -2.8375    0.0625    0.0000 N   0  0  0  0  0  0  0  0  0  0  0  0
   -1.5833    0.7833    0.0000 C   0  0  0  0  0  0  0  0  0  0  0  0
   -0.3375    0.0625    0.0000 C   0  0  0  0  0  0  0  0  0  0  0  0
   -2.8375   -1.4042    0.0000 C   0  0  0  0  0  0  0  0  0  0  0  0
   -1.5833   -2.1292    0.0000 N   0  0  0  0  0  0  0  0  0  0  0  0
   -0.3375   -1.4042    0.0000 C   0  0  0  0  0  0  0  0  0  0  0  0
   -1.5833    2.2333    0.0000 O   0  0  0  0  0  0  0  0  0  0  0  0
   -4.0833   -2.1292    0.0000 O   0  0  0  0  0  0  0  0  0  0  0  0
    1.3417    0.0708    0.0000 C   0  0  0  0  0  0  0  0  0  0  0  0
    0.9375   -2.1292    0.0000 O   0  0  0  0  0  0  0  0  0  0  0  0
   -4.0833    0.7833    0.0000 C   0  0  0  0  0  0  0  0  0  0  0  0
    0.2542    1.0083    0.0000 C   0  0  0  0  0  0  0  0  0  0  0  0
    2.0917   -1.1792    0.0000 C   0  0  0  0  0  0  0  0  0  0  0  0
    2.0792    1.3458    0.0000 C   0  0  0  0  0  0  0  0  0  0  0  0
   -0.2583    2.0000    0.0000 C   0  0  0  0  0  0  0  0  0  0  0  0
    3.5667   -1.2042    0.0000 C   0  0  0  0  0  0  0  0  0  0  0  0
    3.5167    1.3500    0.0000 C   0  0  0  0  0  0  0  0  0  0  0  0
    4.2667    0.1083    0.0000 C   0  0  0  0  0  0  0  0  0  0  0  0
  2  1  1  0
  3  2  1  0
  4  1  1  0
  5  4  1  0
  6  5  1  0
  7  2  2  0
  8  4  2  0
  9  3  1  0
 10  6  2  0
 11  1  1  0
 12  3  1  0
 13  9  1  0
 14  9  2  0
 15 12  1  0
 16 13  2  0
 17 14  1  0
 18 17  2  0
  3  6  1  0
 16 18  1  0
M  END
> <chembl_id>
CHEMBL45029

> <chembl_pref_name>
MEPHOBARBITAL

$$$$

     RDKit          2D

 10 10  0  0  0  0  0  0  0  0999 V2000
    1.2125    0.1333    0.0000 C   0  0  0  0  0  0  0  0  0  0  0  0
    0.0542   -0.7167    0.0000 O   0  0  0  0  0  0  0  0  0  0  0  0
    0.7542    1.4833    0.0000 O   0  0  0  0  0  0  0  0  0  0  0  0
   -1.1125    0.1208    0.0000 C   0  0  0  0  0  0  0  0  0  0  0  0
    2.5792   -0.3042    0.0000 C   0  0  0  0  0  0  0  0  0  0  0  0
   -0.6833    1.4833    0.0000 C   0  0  0  0  0  0  0  0  0  0  0  0
    3.6500    0.6458    0.0000 I   0  0  0  0  0  0  0  0  0  0  0  0
   -3.5333    0.6125    0.0000 O   0  0  0  0  0  0  0  0  0  0  0  0
   -2.4708   -0.3250    0.0000 C   0  0  0  0  0  0  0  0  0  0  0  0
    2.9000   -1.7000    0.0000 C   0  0  0  0  0  0  0  0  0  0  0  0
  2  1  1  0
  3  1  1  0
  4  2  1  0
  5  1  1  0
  6  3  1  0
  7  5  1  0
  8  9  1  0
  9  4  1  0
 10  5  1  0
  4  6  1  0
M  END
> <chembl_id>
CHEMBL2105827

> <chembl_pref_name>
GLYCEROL, IODINATED

$$$$

     RDKit          2D

 19 21  0  0  0  0  0  0  0  0999 V2000
    4.7292   -5.2250    0.0000 C   0  0  0  0  0  0  0  0  0  0  0  0
    5.1750   -4.6792    0.0000 C   0  0  0  0  0  0  0  0  0  0  0  0
    4.0000   -5.2250    0.0000 C   0  0  0  0  0  0  0  0  0  0  0  0
    3.5542   -4.6667    0.0000 N   0  0  0  0  0  0  0  0  0  0  0  0
    5.0167   -3.9667    0.0000 N   0  0  0  0  0  0  0  0  0  0  0  0
    3.6500   -5.8500    0.0000 C   0  0  0  0  0  0  0  0  0  0  0  0
    5.0792   -5.8500    0.0000 C   0  0  0  0  0  0  0  0  0  0  0  0
    5.8667   -4.8375    0.0000 C   0  0  0  0  0  0  0  0  0  0  0  0
    4.7167   -6.4792    0.0000 C   0  0  0  0  0  0  0  0  0  0  0  0
    4.3542   -3.6667    0.0000 C   0  0  0  0  0  0  0  0  0  0  0  0
    3.9917   -6.4792    0.0000 C   0  0  0  0  0  0  0  0  0  0  0  0
    3.7167   -3.9667    0.0000 C   0  0  0  0  0  0  0  0  0  0  0  0
    5.0917   -6.9000    0.0000 Cl  0  0  0  0  0  0  0  0  0  0  0  0
    2.8667   -4.8417    0.0000 C   0  0  0  0  0  0  0  0  0  0  0  0
    6.3625   -4.3167    0.0000 C   0  0  0  0  0  0  0  0  0  0  0  0
    6.0667   -5.5167    0.0000 C   0  0  0  0  0  0  0  0  0  0  0  0
    7.0667   -4.4917    0.0000 C   0  0  0  0  0  0  0  0  0  0  0  0
    6.7667   -5.6875    0.0000 C   0  0  0  0  0  0  0  0  0  0  0  0
    7.2792   -5.1667    0.0000 C   0  0  0  0  0  0  0  0  0  0  0  0
  2  1  1  0
  3  1  2  0
  4  3  1  0
  5  2  2  0
  6  3  1  0
  7  1  1  0
  8  2  1  0
  9  7  2  0
 10  5  1  0
 11  9  1  0
 12  4  1  0
 13  9  1  0
 14  4  1  0
 15  8  1  0
 16  8  2  0
 17 15  2  0
 18 16  1  0
 19 17  1  0
  6 11  2  0
 10 12  1  0
 18 19  2  0
M  END
> <chembl_id>
CHEMBL28333

> <chembl_pref_name>
MEDAZEPAM

$$$$

     RDKit          2D

 20 20  0  0  0  0  0  0  0  0999 V2000
    4.0292   -0.2292    0.0000 Na  0  0  0  0  0 15  0  0  0  0  0  0
    0.3167   -0.5542    0.0000 C   0  0  0  0  0  0  0  0  0  0  0  0
    0.8917   -0.1292    0.0000 N   0  0  0  0  0  0  0  0  0  0  0  0
    1.4667   -0.5542    0.0000 C   0  0  0  0  0  0  0  0  0  0  0  0
    0.5375   -1.2292    0.0000 C   0  0  0  0  0  0  0  0  0  0  0  0
   -0.3000   -0.1917    0.0000 C   0  0  0  0  0  0  0  0  0  0  0  0
    2.0708   -0.1917    0.0000 C   0  0  0  0  0  0  0  0  0  0  0  0
    1.2417   -1.2292    0.0000 C   0  0  0  0  0  0  0  0  0  0  0  0
    2.6917   -0.5417    0.0000 C   0  0  0  0  0  0  0  0  0  0  0  0
   -0.9125   -0.5500    0.0000 C   0  0  0  0  0  0  0  0  0  0  0  0
   -0.2958    0.5083    0.0000 O   0  0  0  0  0  0  0  0  0  0  0  0
    3.3042   -0.1792    0.0000 O   0  0  0  0  0  0  0  0  0  0  0  0
    2.7042   -1.2500    0.0000 O   0  0  0  0  0  0  0  0  0  0  0  0
   -1.5208   -0.1917    0.0000 C   0  0  0  0  0  0  0  0  0  0  0  0
   -0.9083   -1.2542    0.0000 C   0  0  0  0  0  0  0  0  0  0  0  0
    0.8917    0.5708    0.0000 C   0  0  0  0  0  0  0  0  0  0  0  0
   -1.5208   -1.6125    0.0000 C   0  0  0  0  0  0  0  0  0  0  0  0
   -2.1375   -0.5500    0.0000 C   0  0  0  0  0  0  0  0  0  0  0  0
   -2.1375   -1.2542    0.0000 C   0  0  0  0  0  0  0  0  0  0  0  0
   -2.7500   -1.6125    0.0000 C   0  0  0  0  0  0  0  0  0  0  0  0
  3  2  1  0
  4  3  1  0
  5  2  2  0
  6  2  1  0
  7  4  1  0
  8  5  1  0
  9  7  1  0
 10  6  1  0
 11  6  2  0
 12  9  1  0
 13  9  2  0
 14 10  2  0
 15 10  1  0
 16  3  1  0
 17 15  2  0
 18 14  1  0
 19 17  1  0
 20 19  1  0
  8  4  2  0
 18 19  2  0
M  CHG  2   1   1  12  -1
M  END
> <chembl_id>
CHEMBL1200613

> <chembl_pref_name>
TOLMETIN SODIUM

$$$$

     RDKit          2D

 17 19  0  0  0  0  0  0  0  0999 V2000
  -14.8603    5.2794    0.0000 C   0  0  0  0  0  0  0  0  0  0  0  0
  -15.4124    4.6663    0.0000 C   0  0  0  0  0  0  0  0  0  0  0  0
  -16.2193    4.8378    0.0000 C   0  0  0  0  0  0  0  0  0  0  0  0
  -16.4743    5.6224    0.0000 C   0  0  0  0  0  0  0  0  0  0  0  0
  -15.9222    6.2355    0.0000 C   0  0  0  0  0  0  0  0  0  0  0  0
  -15.1153    6.0640    0.0000 C   0  0  0  0  0  0  0  0  0  0  0  0
  -16.7714    4.2247    0.0000 F   0  0  0  0  0  0  0  0  0  0  0  0
  -16.1772    7.0202    0.0000 C   0  0  0  0  0  0  0  0  0  0  0  0
  -16.4321    7.8048    0.0000 N   0  0  0  0  0  0  0  0  0  0  0  0
  -15.1574    3.8817    0.0000 C   0  0  0  0  0  0  0  0  0  0  0  0
  -14.3728    3.6267    0.0000 N   0  0  0  0  0  0  0  0  0  0  0  0
  -14.3728    2.8017    0.0000 C   0  0  0  0  0  0  0  0  0  0  0  0
  -15.1574    2.5468    0.0000 C   0  0  0  0  0  0  0  0  0  0  0  0
  -15.6423    3.2142    0.0000 C   0  0  0  0  0  0  0  0  0  0  0  0
  -13.5882    2.5468    0.0000 C   0  0  0  0  0  0  0  0  0  0  0  0
  -13.1033    3.2142    0.0000 N   0  0  0  0  0  0  0  0  0  0  0  0
  -13.5882    3.8817    0.0000 C   0  0  0  0  0  0  0  0  0  0  0  0
  1  2  2  0
  1  6  1  0
  2  3  1  0
  3  4  2  0
  4  5  1  0
  5  6  2  0
  3  7  1  0
  5  8  1  0
  8  9  3  0
 10  2  1  6
 10 11  1  0
 10 14  1  0
 12 13  1  0
 13 14  1  0
 11 17  1  0
 11 12  1  0
 12 15  2  0
 15 16  1  0
 16 17  2  0
M  END
> <chembl_id>
CHEMBL3099695

> <chembl_pref_name>
OSILODROSTAT

$$$$

     RDKit          2D

 10 10  0  0  1  0  0  0  0  0999 V2000
    0.5625    1.3583    0.0000 C   0  0  0  0  0  0  0  0  0  0  0  0
    3.0417    1.3625    0.0000 N   0  0  0  0  0  0  0  0  0  0  0  0
   -0.6708    0.6333    0.0000 C   0  0  0  0  0  0  0  0  0  0  0  0
    1.8042    0.6458    0.0000 C   0  0  0  0  0  0  0  0  0  0  0  0
   -1.9125    1.3458    0.0000 C   0  0  0  0  0  0  0  0  0  0  0  0
   -0.6708   -0.8042    0.0000 C   0  0  0  0  0  0  0  0  0  0  0  0
    1.8125   -0.7875    0.0000 C   0  0  0  0  0  0  0  0  0  0  0  0
   -3.1458    0.6250    0.0000 C   0  0  0  0  0  0  0  0  0  0  0  0
   -1.9083   -1.5250    0.0000 C   0  0  0  0  0  0  0  0  0  0  0  0
   -3.1500   -0.8042    0.0000 C   0  0  0  0  0  0  0  0  0  0  0  0
  4  2  1  1
  3  1  1  0
  4  1  1  0
  5  3  2  0
  6  3  1  0
  7  4  1  0
  8  5  1  0
  9  6  2  0
 10  9  1  0
  8 10  2  0
M  END
> <chembl_id>
CHEMBL612

> <chembl_pref_name>
DEXTROAMPHETAMINE

$$$$

     RDKit          2D

 15 12  0  0  0  0  0  0  0  0999 V2000
    5.4884   -9.5464    0.0000 C   0  0  0  0  0  0  0  0  0  0  0  0
    6.1962   -9.9624    0.0000 O   0  0  0  0  0  0  0  0  0  0  0  0
    5.4884   -8.7526    0.0000 O   0  0  0  0  0  0  0  0  0  0  0  0
    2.6624   -9.5608    0.0000 O   0  0  0  0  0  0  0  0  0  0  0  0
    4.7760   -9.9624    0.0000 C   0  0  0  0  0  0  0  0  0  0  0  0
    3.3702   -9.9624    0.0000 C   0  0  0  0  0  0  0  0  0  0  0  0
    4.0826   -9.5464    0.0000 C   0  0  0  0  0  0  0  0  0  0  0  0
    5.3077   -7.5216    0.0000 C   0  0  0  0  0  0  0  0  0  0  0  0
    6.0154   -7.9377    0.0000 O   0  0  0  0  0  0  0  0  0  0  0  0
    5.3077   -6.7278    0.0000 O   0  0  0  0  0  0  0  0  0  0  0  0
    2.4817   -7.5360    0.0000 O   0  0  0  0  0  0  0  0  0  0  0  0
    4.5952   -7.9377    0.0000 C   0  0  0  0  0  0  0  0  0  0  0  0
    3.1894   -7.9377    0.0000 C   0  0  0  0  0  0  0  0  0  0  0  0
    3.9019   -7.5216    0.0000 C   0  0  0  0  0  0  0  0  0  0  0  0
    6.7038   -8.5518    0.0000 Mg  0  0  0  0  0 15  0  0  0  0  0  0
  2  1  1  0
  3  1  2  0
  4  6  1  0
  5  1  1  0
  6  7  1  0
  7  5  1  0
  9  8  1  0
 10  8  2  0
 11 13  1  0
 12  8  1  0
 13 14  1  0
 14 12  1  0
M  CHG  3   2  -1   9  -1  15   2
M  END
> <chembl_id>
CHEMBL4594394

> <chembl_pref_name>
MAGNESIUM OXYBATE

$$$$

     RDKit          2D

  8  7  0  0  0  0  0  0  0  0999 V2000
    5.1167   -5.6292    0.0000 N   0  0  0  0  0  0  0  0  0  0  0  0
    6.9542   -5.2792    0.0000 Cl  0  0  0  0  0  0  0  0  0  0  0  0
    3.2667   -5.2792    0.0000 Cl  0  0  0  0  0  0  0  0  0  0  0  0
    5.7167   -5.2792    0.0000 C   0  0  0  0  0  0  0  0  0  0  0  0
    4.5000   -5.2792    0.0000 C   0  0  0  0  0  0  0  0  0  0  0  0
    5.1167   -6.3417    0.0000 C   0  0  0  0  0  0  0  0  0  0  0  0
    6.3417   -5.6292    0.0000 C   0  0  0  0  0  0  0  0  0  0  0  0
    3.8792   -5.6292    0.0000 C   0  0  0  0  0  0  0  0  0  0  0  0
  2  7  1  0
  3  8  1  0
  4  1  1  0
  5  1  1  0
  6  1  1  0
  7  4  1  0
  8  5  1  0
M  END
> <chembl_id>
CHEMBL427

> <chembl_pref_name>
MECHLORETHAMINE

$$$$

     RDKit          2D

 24 27  0  0  1  0  0  0  0  0999 V2000
    9.8161   -5.0779    0.0000 C   0  0  0  0  0  0  0  0  0  0  0  0
    9.8189   -5.9024    0.0000 C   0  0  0  0  0  0  0  0  0  0  0  0
    9.0956   -6.3172    0.0000 C   0  0  0  0  0  0  0  0  0  0  0  0
    8.3820   -5.8948    0.0000 C   0  0  0  0  0  0  0  0  0  0  0  0
    7.6713   -6.3178    0.0000 C   0  0  0  0  0  0  0  0  0  0  0  0
   10.6024   -4.8253    0.0000 C   0  0  0  0  0  0  0  0  0  0  0  0
   10.5943   -6.1622    0.0000 C   0  0  0  0  0  0  0  0  0  0  0  0
    7.6741   -7.1425    0.0000 C   0  0  0  0  0  0  0  0  0  0  0  0
   11.0877   -5.4983    0.0000 C   0  0  0  0  0  0  0  0  0  0  0  0
    9.1025   -4.6638    0.0000 C   0  0  0  0  0  0  0  0  0  0  0  0
    8.3875   -5.0702    0.0000 C   0  0  0  0  0  0  0  0  0  0  0  0
    9.1067   -7.1418    0.0000 C   0  0  0  0  0  0  0  0  0  0  0  0
    6.9577   -5.9080    0.0000 C   0  0  0  0  0  0  0  0  0  0  0  0
    8.3876   -7.5566    0.0000 C   0  0  0  0  0  0  0  0  0  0  0  0
    6.9634   -7.5614    0.0000 C   0  0  0  0  0  0  0  0  0  0  0  0
   11.9123   -5.4955    0.0000 F   0  0  0  0  0  0  0  0  0  0  0  0
    6.2498   -7.1515    0.0000 C   0  0  0  0  0  0  0  0  0  0  0  0
   10.8620   -4.0456    0.0000 O   0  0  0  0  0  0  0  0  0  0  0  0
    6.2470   -6.3227    0.0000 C   0  0  0  0  0  0  0  0  0  0  0  0
    9.8133   -4.2533    0.0000 C   0  0  0  0  0  0  0  0  0  0  0  0
    5.5349   -7.5663    0.0000 O   0  0  0  0  0  0  0  0  0  0  0  0
    8.3812   -6.7283    0.0000 H   0  0  0  0  0  0  0  0  0  0  0  0
    9.0949   -5.4887    0.0000 H   0  0  0  0  0  0  0  0  0  0  0  0
    9.8087   -6.7325    0.0000 H   0  0  0  0  0  0  0  0  0  0  0  0
  2  1  1  0
  3  2  1  0
  4 11  1  0
  5  4  1  0
  6  1  1  0
  7  2  1  0
  8  5  2  0
  9  6  1  0
 10  1  1  0
 11 10  1  0
 12  3  1  0
 13  5  1  0
 14 12  1  0
 15  8  1  0
  9 16  1  6
 17 19  1  0
  6 18  1  1
 19 13  2  0
  1 20  1  1
 21 17  1  0
  9  7  1  0
  4  3  1  0
 14  8  1  0
 17 15  2  0
  4 22  1  6
  3 23  1  1
  2 24  1  6
M  ISO  1  16  18
M  END
> <chembl_id>
CHEMBL4594261

> <chembl_pref_name>
FLUOROESTRADIOL F-18

$$$$

     RDKit          2D

 17 17  0  0  0  0  0  0  0  0999 V2000
    5.5500   -3.9042    0.0000 C   0  0  0  0  0  0  0  0  0  0  0  0
    6.1417   -4.3208    0.0000 N   0  0  0  0  0  0  0  0  0  0  0  0
    0.6167   -3.6667    0.0000 C   0  0  0  0  0  0  0  0  0  0  0  0
    1.8417   -3.7750    0.0000 C   0  0  0  0  0  0  0  0  0  0  0  0
    1.2167   -4.0792    0.0000 N   0  0  0  0  0  0  0  0  0  0  0  0
    5.7792   -3.2250    0.0000 C   0  0  0  0  0  0  0  0  0  0  0  0
    0.0375   -3.2667    0.0000 N   0  0  0  0  0  0  0  0  0  0  0  0
    6.6917   -3.9042    0.0000 C   0  0  0  0  0  0  0  0  0  0  0  0
    6.4667   -3.2250    0.0000 N   0  0  0  0  0  0  0  0  0  0  0  0
    2.4417   -4.1917    0.0000 N   0  0  0  0  0  0  0  0  0  0  0  0
    1.8417   -3.0542    0.0000 N   0  0  0  0  0  0  0  0  0  0  0  0
    4.9167   -4.1958    0.0000 C   0  0  0  0  0  0  0  0  0  0  0  0
    4.3250   -3.8792    0.0000 S   0  0  0  0  0  0  0  0  0  0  0  0
    5.3792   -2.6417    0.0000 C   0  0  0  0  0  0  0  0  0  0  0  0
    3.0542   -3.8375    0.0000 C   0  0  0  0  0  0  0  0  0  0  0  0
    3.6917   -4.1917    0.0000 C   0  0  0  0  0  0  0  0  0  0  0  0
    2.4625   -2.7125    0.0000 C   0  0  0  0  0  0  0  0  0  0  0  0
  2  1  1  0
  3  5  1  0
  4 10  2  0
  5  4  1  0
  6  1  2  0
  7  3  3  0
  8  2  2  0
  9  6  1  0
 10 15  1  0
 11  4  1  0
 12  1  1  0
 13 12  1  0
 14  6  1  0
 15 16  1  0
 16 13  1  0
 17 11  1  0
  8  9  1  0
M  END
> <chembl_id>
CHEMBL30

> <chembl_pref_name>
CIMETIDINE

$$$$

     RDKit          2D

  9  8  0  0  0  0  0  0  0  0999 V2000
   -1.2000   -0.5792    0.0000 C   0  0  0  0  0  0  0  0  0  0  0  0
    0.0625   -1.2792    0.0000 N   0  0  0  0  0  0  0  0  0  0  0  0
    1.3000   -0.5417    0.0000 C   0  0  0  0  0  0  0  0  0  0  0  0
   -2.4458   -1.3167    0.0000 N   0  0  0  0  0  0  0  0  0  0  0  0
   -1.2000    0.8458    0.0000 N   0  0  0  0  0  0  0  0  0  0  0  0
    2.5250   -1.2250    0.0000 N   0  0  0  0  0  0  0  0  0  0  0  0
    1.3000    0.8708    0.0000 N   0  0  0  0  0  0  0  0  0  0  0  0
    0.0250    1.5833    0.0000 C   0  0  0  0  0  0  0  0  0  0  0  0
   -2.4833    1.5250    0.0000 C   0  0  0  0  0  0  0  0  0  0  0  0
  2  1  1  0
  3  2  1  0
  4  1  2  0
  5  1  1  0
  6  3  2  0
  7  3  1  0
  8  5  1  0
  9  5  1  0
M  END
> <chembl_id>
CHEMBL1431

> <chembl_pref_name>
METFORMIN

$$$$

     RDKit          2D

 20 22  0  0  0  0  0  0  0  0999 V2000
    4.5292   -3.8292    0.0000 N   0  0  0  0  0  0  0  0  0  0  0  0
    3.8417   -3.9792    0.0000 C   0  0  0  0  0  0  0  0  0  0  0  0
    3.2917   -3.5500    0.0000 C   0  0  0  0  0  0  0  0  0  0  0  0
    3.8417   -2.3917    0.0000 N   0  0  0  0  0  0  0  0  0  0  0  0
    4.5292   -2.5500    0.0000 C   0  0  0  0  0  0  0  0  0  0  0  0
    4.8417   -3.1917    0.0000 C   0  0  0  0  0  0  0  0  0  0  0  0
    3.2917   -2.8417    0.0000 C   0  0  0  0  0  0  0  0  0  0  0  0
    2.6792   -3.8917    0.0000 C   0  0  0  0  0  0  0  0  0  0  0  0
    3.4792   -4.5917    0.0000 C   0  0  0  0  0  0  0  0  0  0  0  0
    4.9792   -1.9917    0.0000 O   0  0  0  0  0  0  0  0  0  0  0  0
    2.6792   -2.4792    0.0000 C   0  0  0  0  0  0  0  0  0  0  0  0
    2.0625   -3.5375    0.0000 C   0  0  0  0  0  0  0  0  0  0  0  0
    5.5542   -3.1917    0.0000 O   0  0  0  0  0  0  0  0  0  0  0  0
    2.0542   -2.8375    0.0000 C   0  0  0  0  0  0  0  0  0  0  0  0
    1.4500   -3.8917    0.0000 Cl  0  0  0  0  0  0  0  0  0  0  0  0
    3.8375   -5.2125    0.0000 C   0  0  0  0  0  0  0  0  0  0  0  0
    2.7750   -4.5917    0.0000 C   0  0  0  0  0  0  0  0  0  0  0  0
    3.4750   -5.8292    0.0000 C   0  0  0  0  0  0  0  0  0  0  0  0
    2.4125   -5.2042    0.0000 C   0  0  0  0  0  0  0  0  0  0  0  0
    2.7667   -5.8250    0.0000 C   0  0  0  0  0  0  0  0  0  0  0  0
  2  1  2  0
  3  2  1  0
  4  5  1  0
  5  6  1  0
  6  1  1  0
  7  3  1  0
  8  3  2  0
  9  2  1  0
 10  5  2  0
 11  7  2  0
 12  8  1  0
 13  6  1  0
 14 12  2  0
 15 12  1  0
 16  9  2  0
 17  9  1  0
 18 16  1  0
 19 17  2  0
 20 19  1  0
  4  7  1  0
 20 18  2  0
 14 11  1  0
M  END
> <chembl_id>
CHEMBL568

> <chembl_pref_name>
OXAZEPAM

$$$$

     RDKit          2D

  6  3  0  0  0  0  0  0  0  0999 V2000
    6.5542   -6.7792    0.0000 Na  0  0  0  0  0 15  0  0  0  0  0  0
    5.2042   -6.4250    0.0000 C   0  0  0  0  0  0  0  0  0  0  0  0
    4.5792   -6.7750    0.0000 O   0  0  0  0  0  0  0  0  0  0  0  0
    5.8000   -6.7917    0.0000 O   0  0  0  0  0  0  0  0  0  0  0  0
    5.2042   -5.7042    0.0000 O   0  0  0  0  0  0  0  0  0  0  0  0
    3.7750   -6.7792    0.0000 Na  0  0  0  0  0 15  0  0  0  0  0  0
  3  2  1  0
  4  2  1  0
  5  2  2  0
M  CHG  4   1   1   3  -1   4  -1   6   1
M  END
> <chembl_id>
CHEMBL186314

> <chembl_pref_name>
SODIUM CARBONATE

$$$$

     RDKit          2D

  9  9  0  0  0  0  0  0  0  0999 V2000
   -4.6182    0.8282    0.0000 C   0  0  0  0  0  0  0  0  0  0  0  0
   -4.6195    0.0020    0.0000 C   0  0  0  0  0  0  0  0  0  0  0  0
   -3.9077   -0.4101    0.0000 C   0  0  0  0  0  0  0  0  0  0  0  0
   -3.1897    0.0025    0.0000 C   0  0  0  0  0  0  0  0  0  0  0  0
   -3.1928    0.8321    0.0000 C   0  0  0  0  0  0  0  0  0  0  0  0
   -3.9097    1.2403    0.0000 C   0  0  0  0  0  0  0  0  0  0  0  0
   -3.9135    2.0639    0.0000 O   0  0  0  0  0  0  0  0  0  0  0  0
   -2.4760   -0.4086    0.0000 O   0  0  0  0  0  0  0  0  0  0  0  0
   -5.3333   -0.4087    0.0000 O   0  0  0  0  0  0  0  0  0  0  0  0
  4  5  1  0
  2  3  1  0
  5  6  2  0
  6  1  1  0
  1  2  2  0
  6  7  1  0
  3  4  2  0
  4  8  1  0
  2  9  1  0
M  END
> <chembl_id>
CHEMBL473159

> <chembl_pref_name>
PHLOROGLUCINOL

$$$$

     RDKit          2D

  6  5  0  0  0  0  0  0  0  0999 V2000
   -0.3250   -0.4292    0.0000 C   0  0  0  0  0  0  0  0  0  0  0  0
   -1.0625   -1.9750    0.0000 O   0  0  0  0  0  0  0  0  0  0  0  0
   -0.9833   -0.4292    0.0000 N   0  0  0  0  0  0  0  0  0  0  0  0
   -1.0833    0.9583    0.0000 O   0  0  0  0  0  0  0  0  0  0  0  0
   -0.2458    2.3333    0.0000 C   0  0  0  0  0  0  0  0  0  0  0  0
    1.3542    2.2708    0.0000 C   0  0  0  0  0  0  0  0  0  0  0  0
  2  1  2  0
  3  1  1  0
  4  1  1  0
  5  4  1  0
  6  5  1  0
M  END
> <chembl_id>
CHEMBL462547

> <chembl_pref_name>
URETHANE

$$$$

     RDKit          2D

 17 18  0  0  0  0  0  0  0  0999 V2000
    5.1375   -5.4167    0.0000 S   0  0  0  0  0  0  0  0  0  0  0  0
    4.5417   -5.0500    0.0000 C   0  0  0  0  0  0  0  0  0  0  0  0
    5.7542   -5.0625    0.0000 C   0  0  0  0  0  0  0  0  0  0  0  0
    4.7417   -5.9917    0.0000 O   0  0  0  0  0  0  0  0  0  0  0  0
    5.6792   -5.8792    0.0000 O   0  0  0  0  0  0  0  0  0  0  0  0
    3.9167   -5.4042    0.0000 C   0  0  0  0  0  0  0  0  0  0  0  0
    4.5417   -4.3500    0.0000 C   0  0  0  0  0  0  0  0  0  0  0  0
    6.3750   -5.4250    0.0000 C   0  0  0  0  0  0  0  0  0  0  0  0
    5.7667   -4.3625    0.0000 C   0  0  0  0  0  0  0  0  0  0  0  0
    3.3167   -4.3417    0.0000 C   0  0  0  0  0  0  0  0  0  0  0  0
    6.9917   -4.3667    0.0000 C   0  0  0  0  0  0  0  0  0  0  0  0
    2.6917   -3.9792    0.0000 N   0  0  0  0  0  0  0  0  0  0  0  0
    7.6167   -4.0167    0.0000 N   0  0  0  0  0  0  0  0  0  0  0  0
    3.3000   -5.0542    0.0000 C   0  0  0  0  0  0  0  0  0  0  0  0
    3.9292   -3.9917    0.0000 C   0  0  0  0  0  0  0  0  0  0  0  0
    6.9917   -5.0792    0.0000 C   0  0  0  0  0  0  0  0  0  0  0  0
    6.3792   -4.0083    0.0000 C   0  0  0  0  0  0  0  0  0  0  0  0
  2  1  1  0
  3  1  1  0
  4  1  2  0
  5  1  2  0
  6  2  2  0
  7  2  1  0
  8  3  2  0
  9  3  1  0
 10 15  1  0
 11 17  1  0
 12 10  1  0
 13 11  1  0
 14  6  1  0
 15  7  2  0
 16  8  1  0
 17  9  2  0
 11 16  2  0
 10 14  2  0
M  END
> <chembl_id>
CHEMBL1043

> <chembl_pref_name>
DAPSONE

$$$$

     RDKit          2D

 16 16  0  0  0  0  0  0  0  0999 V2000
    5.5042   -0.2625    0.0000 N   0  0  0  0  0  0  0  0  0  0  0  0
    4.8917    0.0917    0.0000 O   0  0  0  0  0  0  0  0  0  0  0  0
    6.1208    0.0958    0.0000 O   0  0  0  0  0  0  0  0  0  0  0  0
    5.5042   -0.9667    0.0000 C   0  0  0  0  0  0  0  0  0  0  0  0
    6.0792   -1.3875    0.0000 N   0  0  0  0  0  0  0  0  0  0  0  0
    4.9333   -1.3875    0.0000 C   0  0  0  0  0  0  0  0  0  0  0  0
    5.8625   -2.0625    0.0000 C   0  0  0  0  0  0  0  0  0  0  0  0
    6.6917   -1.0292    0.0000 C   0  0  0  0  0  0  0  0  0  0  0  0
    5.1500   -2.0625    0.0000 N   0  0  0  0  0  0  0  0  0  0  0  0
    6.4667   -2.4167    0.0000 C   0  0  0  0  0  0  0  0  0  0  0  0
    7.3083   -1.3750    0.0000 C   0  0  0  0  0  0  0  0  0  0  0  0
    7.9167   -1.0125    0.0000 S   0  0  0  0  0  0  0  0  0  0  0  0
    8.2667   -0.3917    0.0000 O   0  0  0  0  0  0  0  0  0  0  0  0
    7.5542   -0.3917    0.0000 O   0  0  0  0  0  0  0  0  0  0  0  0
    8.5333   -1.3583    0.0000 C   0  0  0  0  0  0  0  0  0  0  0  0
    9.1417   -1.0000    0.0000 C   0  0  0  0  0  0  0  0  0  0  0  0
  2  1  1  0
  1  3  2  0
  1  4  1  0
  5  4  1  0
  6  4  2  0
  7  5  1  0
  8  5  1  0
  9  6  1  0
 10  7  1  0
  7  9  2  0
 11  8  1  0
 12 11  1  0
 13 12  2  0
 14 12  2  0
 15 12  1  0
 16 15  1  0
M  CHG  2   1   1   2  -1
M  END
> <chembl_id>
CHEMBL1220

> <chembl_pref_name>
TINIDAZOLE

$$$$

     RDKit          2D

  3  2  0  0  0  0  0  0  0  0999 V2000
    5.0667   -6.2417    0.0000 Se  0  0  0  0  0  4  0  0  0  0  0  0
    4.3667   -6.2417    0.0000 S   0  0  0  0  0  0  0  0  0  0  0  0
    5.7792   -6.2417    0.0000 S   0  0  0  0  0  0  0  0  0  0  0  0
  2  1  2  0
  3  1  2  0
M  END
> <chembl_id>
CHEMBL1200680

> <chembl_pref_name>
SELENIUM SULFIDE

$$$$

     RDKit          2D

 12 12  0  0  0  0  0  0  0  0999 V2000
   -0.4625   -0.5417    0.0000 N   0  0  0  0  0  0  0  0  0  0  0  0
   -1.6458    0.2833    0.0000 C   0  0  0  0  0  0  0  0  0  0  0  0
    0.8750   -0.0917    0.0000 C   0  0  0  0  0  0  0  0  0  0  0  0
   -0.9125   -1.9167    0.0000 C   0  0  0  0  0  0  0  0  0  0  0  0
   -2.8000   -0.5417    0.0000 N   0  0  0  0  0  0  0  0  0  0  0  0
   -2.3500   -1.9167    0.0000 C   0  0  0  0  0  0  0  0  0  0  0  0
   -1.6458    1.7583    0.0000 S   0  0  0  0  0  0  0  0  0  0  0  0
    1.1792    1.3208    0.0000 O   0  0  0  0  0  0  0  0  0  0  0  0
    1.8000   -1.1042    0.0000 O   0  0  0  0  0  0  0  0  0  0  0  0
   -4.1625   -0.0792    0.0000 C   0  0  0  0  0  0  0  0  0  0  0  0
    3.2000   -0.8000    0.0000 C   0  0  0  0  0  0  0  0  0  0  0  0
    4.1542   -1.8542    0.0000 C   0  0  0  0  0  0  0  0  0  0  0  0
  2  1  1  0
  3  1  1  0
  4  1  1  0
  5  2  1  0
  6  4  2  0
  7  2  2  0
  8  3  2  0
  9  3  1  0
 10  5  1  0
 11  9  1  0
 12 11  1  0
  5  6  1  0
M  END
> <chembl_id>
CHEMBL508102

> <chembl_pref_name>
CARBIMAZOLE

$$$$

     RDKit          2D

 12 13  0  0  1  0  0  0  0  0999 V2000
   -2.8742   -4.5797    0.0000 C   0  0  0  0  0  0  0  0  0  0  0  0
   -3.5922   -4.1734    0.0000 C   0  0  0  0  0  0  0  0  0  0  0  0
   -4.3031   -4.5921    0.0000 C   0  0  0  0  0  0  0  0  0  0  0  0
   -4.2959   -5.4171    0.0000 C   0  0  0  0  0  0  0  0  0  0  0  0
   -3.5779   -5.8234    0.0000 C   0  0  0  0  0  0  0  0  0  0  0  0
   -2.8670   -5.4046    0.0000 C   0  0  0  0  0  0  0  0  0  0  0  0
   -4.0047   -4.8879    0.0000 C   0  0  0  0  0  0  0  0  0  0  0  0
   -3.5994   -3.3485    0.0000 H   0  0  0  0  0  0  0  0  0  0  0  0
   -3.5707   -6.6483    0.0000 C   0  0  0  0  0  0  0  0  0  0  0  0
   -4.8016   -4.6744    0.0000 C   0  0  0  0  0  0  0  0  0  0  0  0
   -4.8016   -5.1014    0.0000 C   0  0  0  0  0  0  0  0  0  0  0  0
   -2.1490   -5.8109    0.0000 O   0  0  0  0  0  0  0  0  0  0  0  0
  1  2  1  0
  6  1  1  0
  2  3  1  0
  3  4  1  0
  4  5  1  0
  5  6  1  0
  2  7  1  0
  5  7  1  0
  2  8  1  1
  5  9  1  1
  7 10  1  0
  7 11  1  0
  6 12  2  0
M  END
> <chembl_id>
CHEMBL504760

> <chembl_pref_name>
CAMPHOR

$$$$

     RDKit          2D

 19 17  0  0  0  0  0  0  0  0999 V2000
    1.1250   -1.6792    0.0000 O   0  0  0  0  0  0  0  0  0  0  0  0
   -1.0208    0.4875    0.0000 C   0  0  0  0  0  0  0  0  0  0  0  0
   -0.4083    0.8458    0.0000 N   0  0  0  0  0  0  0  0  0  0  0  0
    0.2000    0.5000    0.0000 C   0  0  0  0  0  0  0  0  0  0  0  0
   -1.6458    0.8375    0.0000 C   0  0  0  0  0  0  0  0  0  0  0  0
   -1.0208   -0.2167    0.0000 C   0  0  0  0  0  0  0  0  0  0  0  0
    0.2042   -0.2125    0.0000 O   0  0  0  0  0  0  0  0  0  0  0  0
    0.8167    0.8458    0.0000 C   0  0  0  0  0  0  0  0  0  0  0  0
    1.4375    0.5000    0.0000 N   0  0  0  0  0  0  0  0  0  0  0  0
   -2.2583   -0.2167    0.0000 C   0  0  0  0  0  0  0  0  0  0  0  0
   -1.6375   -0.5750    0.0000 C   0  0  0  0  0  0  0  0  0  0  0  0
   -2.2583    0.4833    0.0000 C   0  0  0  0  0  0  0  0  0  0  0  0
   -0.4000   -0.5667    0.0000 C   0  0  0  0  0  0  0  0  0  0  0  0
   -1.6458    1.5583    0.0000 C   0  0  0  0  0  0  0  0  0  0  0  0
    2.0542    0.8458    0.0000 C   0  0  0  0  0  0  0  0  0  0  0  0
    1.4417   -0.2167    0.0000 C   0  0  0  0  0  0  0  0  0  0  0  0
    2.6667    0.4875    0.0000 C   0  0  0  0  0  0  0  0  0  0  0  0
    2.0542   -0.5750    0.0000 C   0  0  0  0  0  0  0  0  0  0  0  0
    0.0292   -1.6792    0.0000 Cl  0  0  0  0  0  0  0  0  0  0  0  0
  3  2  1  0
  4  3  1  0
  5  2  2  0
  6  2  1  0
  7  4  2  0
  8  4  1  0
  9  8  1  0
 10 11  1  0
 11  6  2  0
 12  5  1  0
 13  6  1  0
 14  5  1  0
 15  9  1  0
 16  9  1  0
 17 15  1  0
 18 16  1  0
 10 12  2  0
M  END
> <chembl_id>
CHEMBL1200409

> <chembl_pref_name>
LIDOCAINE HYDROCHLORIDE

$$$$

     RDKit          2D

  7  6  0  0  0  0  0  0  0  0999 V2000
   -0.7208    0.2583    0.0000 C   0  0  0  0  0  0  0  0  0  0  0  0
   -2.1458    0.2583    0.0000 C   0  0  0  0  0  0  0  0  0  0  0  0
    0.7125    0.2583    0.0000 C   0  0  0  0  0  0  0  0  0  0  0  0
    0.7125    1.6833    0.0000 O   0  0  0  0  0  0  0  0  0  0  0  0
    0.7125   -1.2000    0.0000 C   0  0  0  0  0  0  0  0  0  0  0  0
    2.1292    0.2583    0.0000 C   0  0  0  0  0  0  0  0  0  0  0  0
    1.9417   -1.9000    0.0000 C   0  0  0  0  0  0  0  0  0  0  0  0
  2  1  3  0
  3  1  1  0
  4  3  1  0
  5  3  1  0
  6  3  1  0
  7  5  1  0
M  END
> <chembl_id>
CHEMBL501613

> <chembl_pref_name>
MEPARFYNOL

$$$$

     RDKit          2D

 12 11  0  0  0  0  0  0  0  0999 V2000
   -7.6607  -20.2714    0.0000 Cl  0  0  0  0  0  0  0  0  0  0  0  0
   -9.3623  -20.6839    0.0000 N   0  0  0  0  0  0  0  0  0  0  0  0
   -9.3623  -19.8589    0.0000 C   0  0  0  0  0  0  0  0  0  0  0  0
  -10.0768  -19.4464    0.0000 C   0  0  0  0  0  0  0  0  0  0  0  0
  -10.7913  -19.8589    0.0000 C   0  0  0  0  0  0  0  0  0  0  0  0
  -10.7913  -20.6839    0.0000 C   0  0  0  0  0  0  0  0  0  0  0  0
  -10.0768  -21.0964    0.0000 C   0  0  0  0  0  0  0  0  0  0  0  0
  -10.0768  -21.9214    0.0000 C   0  0  0  0  0  0  0  0  0  0  0  0
  -10.7913  -22.3339    0.0000 O   0  0  0  0  0  0  0  0  0  0  0  0
  -11.5057  -21.0964    0.0000 O   0  0  0  0  0  0  0  0  0  0  0  0
  -11.5057  -19.4464    0.0000 O   0  0  0  0  0  0  0  0  0  0  0  0
  -10.0768  -18.6214    0.0000 O   0  0  0  0  0  0  0  0  0  0  0  0
  2  3  1  0
  7  2  1  0
  3  4  1  0
  4  5  1  0
  5  6  1  0
  6  7  1  0
  7  8  1  6
  8  9  1  0
  6 10  1  6
  5 11  1  6
  4 12  1  1
M  END
> <chembl_id>
CHEMBL2107355

> <chembl_pref_name>
MIGALASTAT HYDROCHLORIDE

$$$$

     RDKit          2D

  8  7  0  0  0  0  0  0  0  0999 V2000
    2.0875   -3.1542    0.0000 C   0  0  0  0  0  0  0  0  0  0  0  0
    2.4375   -3.7667    0.0000 N   0  0  0  0  0  0  0  0  0  0  0  0
    1.4667   -2.8042    0.0000 C   0  0  0  0  0  0  0  0  0  0  0  0
    1.7292   -3.7667    0.0000 C   0  0  0  0  0  0  0  0  0  0  0  0
    2.7000   -2.8042    0.0000 C   0  0  0  0  0  0  0  0  0  0  0  0
    3.3125   -3.1542    0.0000 O   0  0  0  0  0  0  0  0  0  0  0  0
    1.0167   -3.7667    0.0000 O   0  0  0  0  0  0  0  0  0  0  0  0
    0.8542   -3.1542    0.0000 O   0  0  0  0  0  0  0  0  0  0  0  0
  2  1  1  0
  3  1  1  0
  4  1  1  0
  5  1  1  0
  6  5  1  0
  7  4  1  0
  8  3  1  0
M  END
> <chembl_id>
CHEMBL1200391

> <chembl_pref_name>
TROMETHAMINE

$$$$

     RDKit          2D

 20 22  0  0  0  0  0  0  0  0999 V2000
    2.4917   -2.5917    0.0000 C   0  0  0  0  0  0  0  0  0  0  0  0
    2.4917   -1.8875    0.0000 C   0  0  0  0  0  0  0  0  0  0  0  0
    3.1667   -1.6625    0.0000 N   0  0  0  0  0  0  0  0  0  0  0  0
    3.1667   -2.8167    0.0000 C   0  0  0  0  0  0  0  0  0  0  0  0
    1.8792   -2.9542    0.0000 C   0  0  0  0  0  0  0  0  0  0  0  0
    3.5875   -2.2417    0.0000 C   0  0  0  0  0  0  0  0  0  0  0  0
    1.2667   -2.5917    0.0000 C   0  0  0  0  0  0  0  0  0  0  0  0
    0.0292   -2.5917    0.0000 N   0  0  0  0  0  0  0  0  0  0  0  0
    0.6417   -2.9542    0.0000 C   0  0  0  0  0  0  0  0  0  0  0  0
    1.8792   -1.5292    0.0000 C   0  0  0  0  0  0  0  0  0  0  0  0
    1.8792   -3.6542    0.0000 O   0  0  0  0  0  0  0  0  0  0  0  0
    1.2667   -1.8875    0.0000 C   0  0  0  0  0  0  0  0  0  0  0  0
   -1.1958   -1.8625    0.0000 O   0  0  0  0  0  0  0  0  0  0  0  0
    3.3917   -3.4917    0.0000 C   0  0  0  0  0  0  0  0  0  0  0  0
    0.0292   -1.8792    0.0000 C   0  0  0  0  0  0  0  0  0  0  0  0
   -0.5958   -2.9417    0.0000 C   0  0  0  0  0  0  0  0  0  0  0  0
    4.2792   -2.2417    0.0000 C   0  0  0  0  0  0  0  0  0  0  0  0
   -0.5833   -1.5125    0.0000 C   0  0  0  0  0  0  0  0  0  0  0  0
   -1.1958   -2.5792    0.0000 C   0  0  0  0  0  0  0  0  0  0  0  0
    4.0875   -3.6417    0.0000 C   0  0  0  0  0  0  0  0  0  0  0  0
  2  1  2  0
  3  2  1  0
  4  1  1  0
  5  1  1  0
  6  4  2  0
  7  5  1  0
  8  9  1  0
  9  7  1  0
 10  2  1  0
 11  5  2  0
 12  7  1  0
 13 18  1  0
 14  4  1  0
 15  8  1  0
 16  8  1  0
 17  6  1  0
 18 15  1  0
 19 16  1  0
 20 14  1  0
  6  3  1  0
 12 10  1  0
 13 19  1  0
M  END
> <chembl_id>
CHEMBL460

> <chembl_pref_name>
MOLINDONE

$$$$

     RDKit          2D

 18 19  0  0  0  0  0  0  0  0999 V2000
    1.6087    3.5635    0.0000 C   0  0  0  0  0  0  0  0  0  0  0  0
    3.0174    3.8136    0.0000 C   0  0  0  0  0  0  0  0  0  0  0  0
    0.1958    0.4126    0.0000 N   0  0  0  0  0  0  0  0  0  0  0  0
    3.4468    1.3754    0.0000 O   0  0  0  0  0  0  0  0  0  0  0  0
    0.1416    2.7175    0.0000 C   0  0  0  0  0  0  0  0  0  0  0  0
    0.9169    3.0008    0.0000 C   0  0  0  0  0  0  0  0  0  0  0  0
    0.0000    1.9047    0.0000 C   0  0  0  0  0  0  0  0  0  0  0  0
    1.5504    2.4674    0.0000 C   0  0  0  0  0  0  0  0  0  0  0  0
    0.6293    1.3754    0.0000 C   0  0  0  0  0  0  0  0  0  0  0  0
    1.7505    2.7508    0.0000 C   0  0  0  0  0  0  0  0  0  0  0  0
    3.1592    3.0008    0.0000 C   0  0  0  0  0  0  0  0  0  0  0  0
    0.9127    0.0000    0.0000 C   0  0  0  0  0  0  0  0  0  0  0  0
    2.4507    0.4126    0.0000 C   0  0  0  0  0  0  0  0  0  0  0  0
    2.6715    1.6546    0.0000 C   0  0  0  0  0  0  0  0  0  0  0  0
    1.4045    1.6546    0.0000 C   0  0  0  0  0  0  0  0  0  0  0  0
    1.6255    0.4126    0.0000 C   0  0  0  0  0  0  0  0  0  0  0  0
    2.5257    2.4674    0.0000 N   0  0  0  0  0  0  0  0  0  0  0  0
    2.0381    1.1253    0.0000 C   0  0  0  0  0  0  0  0  0  0  0  0
  1 10  1  0
  2 11  1  0
  3 12  1  0
  4 14  2  0
  5  6  1  0
  5  7  2  0
  6  8  2  0
  7  9  1  0
  8 15  1  0
  9 15  2  0
 10 17  1  0
 11 17  1  0
 16 12  1  0
 13 16  1  0
 13 18  1  0
 14 17  1  0
 18 14  1  0
 18 15  1  0
 16 18  1  0
M  END
> <chembl_id>
CHEMBL259209

> <chembl_pref_name>
MILNACIPRAN

$$$$

     RDKit          2D

 15 14  0  0  0  0  0  0  0  0999 V2000
    1.5625    0.7125    0.0000 C   0  0  0  0  0  0  0  0  0  0  0  0
    2.7792    0.7208    0.0000 N   0  0  0  0  0  0  0  0  0  0  0  0
    0.9500    0.3583    0.0000 C   0  0  0  0  0  0  0  0  0  0  0  0
    2.1792    0.3625    0.0000 C   0  0  0  0  0  0  0  0  0  0  0  0
    0.9542   -0.3542    0.0000 C   0  0  0  0  0  0  0  0  0  0  0  0
    0.3292    0.7083    0.0000 C   0  0  0  0  0  0  0  0  0  0  0  0
    2.1792   -0.3500    0.0000 C   0  0  0  0  0  0  0  0  0  0  0  0
    0.3375   -0.7167    0.0000 C   0  0  0  0  0  0  0  0  0  0  0  0
   -0.2833    0.3458    0.0000 C   0  0  0  0  0  0  0  0  0  0  0  0
   -0.2833   -0.3625    0.0000 C   0  0  0  0  0  0  0  0  0  0  0  0
    4.2917    0.0458    0.0000 S   0  0  0  0  0  0  0  0  0  0  0  0
    4.6417    0.6625    0.0000 O   0  0  0  0  0  0  0  0  0  0  0  0
    3.9292    0.6625    0.0000 O   0  0  0  0  0  0  0  0  0  0  0  0
    3.6792   -0.3125    0.0000 O   0  0  0  0  0  0  0  0  0  0  0  0
    4.9042   -0.3125    0.0000 O   0  0  0  0  0  0  0  0  0  0  0  0
  2  4  1  0
  3  1  1  0
  4  1  1  0
  5  3  2  0
  6  3  1  0
  7  4  1  0
  8  5  1  0
  9  6  2  0
 10  8  2  0
  9 10  1  0
 12 11  2  0
 13 11  2  0
 14 11  1  0
 15 11  1  0
M  END
> <chembl_id>
CHEMBL501

> <chembl_pref_name>
AMPHETAMINE SULFATE

$$$$

     RDKit          2D

 14 13  0  0  0  0  0  0  0  0999 V2000
    1.8268   -0.1473    0.0000 Na  0  0  0  0  0 15  0  0  0  0  0  0
    5.6056    0.0589    0.0000 C   0  0  0  0  0  0  0  0  0  0  0  0
    4.8911    0.4714    0.0000 O   0  0  0  0  0  0  0  0  0  0  0  0
    4.1766    0.0589    0.0000 C   0  0  0  0  0  0  0  0  0  0  0  0
    4.1766   -0.7661    0.0000 C   0  0  0  0  0  0  0  0  0  0  0  0
    4.8911   -1.1786    0.0000 C   0  0  0  0  0  0  0  0  0  0  0  0
    5.6055   -0.7661    0.0000 C   0  0  0  0  0  0  0  0  0  0  0  0
    3.4621    0.4714    0.0000 C   0  0  0  0  0  0  0  0  0  0  0  0
    3.4621    1.2964    0.0000 O   0  0  0  0  0  0  0  0  0  0  0  0
    2.7477    0.0589    0.0000 O   0  0  0  0  0  0  0  0  0  0  0  0
    3.4621   -1.1786    0.0000 O   0  0  0  0  0  0  0  0  0  0  0  0
    4.8911   -2.0036    0.0000 O   0  0  0  0  0  0  0  0  0  0  0  0
    6.3200   -1.1786    0.0000 O   0  0  0  0  0  0  0  0  0  0  0  0
    6.3200    0.4714    0.0000 O   0  0  0  0  0  0  0  0  0  0  0  0
  2  3  1  0
  3  4  1  0
  4  5  1  0
  5  6  1  0
  6  7  1  0
  7  2  1  0
  4  8  1  1
  8  9  2  0
  8 10  1  0
  5 11  1  6
  6 12  1  1
  7 13  1  6
  2 14  1  6
M  CHG  2   1   1  10  -1
M  END
> <chembl_id>
CHEMBL2068884

> <chembl_pref_name>
SODIUM GLUCONATE

$$$$

     RDKit          2D

 16 17  0  0  1  0  0  0  0  0999 V2000
   18.1807    0.6343    0.0000 C   0  0  0  0  0  0  0  0  0  0  0  0
   17.4710    1.0337    0.0000 C   0  0  0  0  0  0  0  0  0  0  0  0
   16.7552    0.6251    0.0000 C   0  0  0  0  0  0  0  0  0  0  0  0
   18.8719    1.0491    0.0000 C   0  0  0  0  0  0  0  0  0  0  0  0
   20.2760    1.0675    0.0000 N   0  0  0  0  0  0  0  0  0  0  0  0
   16.7552   -0.2044    0.0000 C   0  0  0  0  0  0  0  0  0  0  0  0
   18.1807   -0.2044    0.0000 C   0  0  0  0  0  0  0  0  0  0  0  0
   19.5755    0.6527    0.0000 C   0  0  0  0  0  0  0  0  0  0  0  0
   17.4710   -0.6161    0.0000 C   0  0  0  0  0  0  0  0  0  0  0  0
   16.0362    1.0337    0.0000 O   0  0  0  0  0  0  0  0  0  0  0  0
   18.8719    1.8602    0.0000 O   0  0  0  0  0  0  0  0  0  0  0  0
   16.0362   -0.6161    0.0000 O   0  0  0  0  0  0  0  0  0  0  0  0
   21.0195    0.6527    0.0000 C   0  0  0  0  0  0  0  0  0  0  0  0
   19.5755   -0.1860    0.0000 C   0  0  0  0  0  0  0  0  0  0  0  0
   21.0195   -0.1860    0.0000 C   0  0  0  0  0  0  0  0  0  0  0  0
   20.2852   -0.5915    0.0000 C   0  0  0  0  0  0  0  0  0  0  0  0
  2  1  1  0
  3  2  2  0
  4  1  1  0
  8  5  1  0
  6  9  2  0
  7  1  2  0
  8  4  1  0
  9  7  1  0
 10  3  1  0
  4 11  1  0
 12  6  1  0
 13  5  1  0
 14  8  1  0
 15 16  1  0
 16 14  1  0
  3  6  1  0
 13 15  1  0
M  END
> <chembl_id>
CHEMBL88055

> <chembl_pref_name>
RIMITEROL

$$$$

     RDKit          2D

 18 19  0  0  0  0  0  0  0  0999 V2000
    0.3572   -0.2063    0.0000 N   0  0  0  0  0  0  0  0  0  0  0  0
   -0.3572    0.2062    0.0000 C   0  0  0  0  0  0  0  0  0  0  0  0
    1.0717    0.2062    0.0000 C   0  0  0  0  0  0  0  0  0  0  0  0
   -1.0717   -0.2063    0.0000 C   0  0  0  0  0  0  0  0  0  0  0  0
    1.7862   -0.2063    0.0000 C   0  0  0  0  0  0  0  0  0  0  0  0
   -1.7862    0.2062    0.0000 C   0  0  0  0  0  0  0  0  0  0  0  0
    0.3572   -1.0313    0.0000 C   0  0  0  0  0  0  0  0  0  0  0  0
   -0.3572    1.0312    0.0000 C   0  0  0  0  0  0  0  0  0  0  0  0
    1.7862   -1.0313    0.0000 C   0  0  0  0  0  0  0  0  0  0  0  0
   -1.7862    1.0313    0.0000 C   0  0  0  0  0  0  0  0  0  0  0  0
   -2.5006   -0.2063    0.0000 C   0  0  0  0  0  0  0  0  0  0  0  0
    2.5006    0.2063    0.0000 C   0  0  0  0  0  0  0  0  0  0  0  0
    2.5006   -1.4438    0.0000 C   0  0  0  0  0  0  0  0  0  0  0  0
   -3.2151    0.2062    0.0000 C   0  0  0  0  0  0  0  0  0  0  0  0
   -2.5006    1.4438    0.0000 C   0  0  0  0  0  0  0  0  0  0  0  0
    3.2151   -0.2062    0.0000 C   0  0  0  0  0  0  0  0  0  0  0  0
    3.2151   -1.0312    0.0000 C   0  0  0  0  0  0  0  0  0  0  0  0
   -3.2151    1.0312    0.0000 C   0  0  0  0  0  0  0  0  0  0  0  0
  2  1  1  0
  3  1  1  0
  4  2  1  0
  5  3  1  0
  6  4  1  0
  7  1  1  0
  2  8  1  6
  9  5  2  0
 10  6  2  0
 11  6  1  0
 12  5  1  0
 13  9  1  0
 14 11  2  0
 15 10  1  0
 16 12  2  0
 17 13  2  0
 18 14  1  0
 16 17  1  0
 15 18  2  0
M  END
> <chembl_id>
CHEMBL3545985

> <chembl_pref_name>
BENZPHETAMINE

$$$$

     RDKit          2D

 17 18  0  0  0  0  0  0  0  0999 V2000
    5.1167   -4.9375    0.0000 Cl  0  0  0  0  0  0  0  0  0  0  0  0
    3.6042   -4.3000    0.0000 C   0  0  0  0  0  0  0  0  0  0  0  0
    2.9917   -4.6542    0.0000 C   0  0  0  0  0  0  0  0  0  0  0  0
    3.6042   -3.5875    0.0000 C   0  0  0  0  0  0  0  0  0  0  0  0
    4.2917   -4.5042    0.0000 N   0  0  0  0  0  0  0  0  0  0  0  0
    4.6917   -3.9417    0.0000 S   0  0  0  0  0  0  0  0  0  0  0  0
    3.6000   -5.7167    0.0000 C   0  0  0  0  0  0  0  0  0  0  0  0
    4.2917   -3.3667    0.0000 N   0  0  0  0  0  0  0  0  0  0  0  0
    2.3750   -4.3000    0.0000 C   0  0  0  0  0  0  0  0  0  0  0  0
    2.9917   -5.3625    0.0000 N   0  0  0  0  0  0  0  0  0  0  0  0
    2.9917   -3.2292    0.0000 C   0  0  0  0  0  0  0  0  0  0  0  0
    3.8042   -6.4167    0.0000 N   0  0  0  0  0  0  0  0  0  0  0  0
    2.3750   -3.5875    0.0000 C   0  0  0  0  0  0  0  0  0  0  0  0
    4.1667   -5.3292    0.0000 N   0  0  0  0  0  0  0  0  0  0  0  0
    1.7542   -4.6542    0.0000 Cl  0  0  0  0  0  0  0  0  0  0  0  0
    4.5042   -6.4167    0.0000 C   0  0  0  0  0  0  0  0  0  0  0  0
    4.7250   -5.7167    0.0000 C   0  0  0  0  0  0  0  0  0  0  0  0
  3  2  1  0
  4  2  1  0
  5  2  2  0
  6  5  1  0
  7 10  1  0
  8  4  2  0
  9  3  2  0
 10  3  1  0
 11  4  1  0
 12  7  2  0
 13 11  2  0
 14  7  1  0
 15  9  1  0
 16 12  1  0
 17 14  1  0
  6  8  1  0
 13  9  1  0
 16 17  1  0
M  END
> <chembl_id>
CHEMBL1200329

> <chembl_pref_name>
TIZANIDINE HYDROCHLORIDE

$$$$

     RDKit          2D

 21 23  0  0  0  0  0  0  0  0999 V2000
   -0.8625   -1.7667    0.0000 N   0  0  0  0  0  0  0  0  0  0  0  0
   -2.0875   -1.4792    0.0000 C   0  0  0  0  0  0  0  0  0  0  0  0
   -1.5375   -1.9167    0.0000 C   0  0  0  0  0  0  0  0  0  0  0  0
   -1.5375   -0.3292    0.0000 N   0  0  0  0  0  0  0  0  0  0  0  0
   -0.5500   -1.1292    0.0000 C   0  0  0  0  0  0  0  0  0  0  0  0
   -2.0875   -0.7667    0.0000 C   0  0  0  0  0  0  0  0  0  0  0  0
   -0.8625   -0.4792    0.0000 C   0  0  0  0  0  0  0  0  0  0  0  0
   -0.4208   -2.3167    0.0000 O   0  0  0  0  0  0  0  0  0  0  0  0
   -2.7000   -1.8292    0.0000 C   0  0  0  0  0  0  0  0  0  0  0  0
   -1.9083   -2.5167    0.0000 C   0  0  0  0  0  0  0  0  0  0  0  0
   -2.7000   -0.4167    0.0000 C   0  0  0  0  0  0  0  0  0  0  0  0
   -0.4208    0.0958    0.0000 N   0  0  0  0  0  0  0  0  0  0  0  0
   -3.3125   -1.4917    0.0000 C   0  0  0  0  0  0  0  0  0  0  0  0
   -3.3125   -0.7542    0.0000 C   0  0  0  0  0  0  0  0  0  0  0  0
   -3.9250   -1.8667    0.0000 Cl  0  0  0  0  0  0  0  0  0  0  0  0
   -1.5708   -3.1292    0.0000 C   0  0  0  0  0  0  0  0  0  0  0  0
   -2.6208   -2.5042    0.0000 C   0  0  0  0  0  0  0  0  0  0  0  0
   -0.6958    0.7458    0.0000 C   0  0  0  0  0  0  0  0  0  0  0  0
   -1.9375   -3.7417    0.0000 C   0  0  0  0  0  0  0  0  0  0  0  0
   -2.9875   -3.1167    0.0000 C   0  0  0  0  0  0  0  0  0  0  0  0
   -2.6375   -3.7417    0.0000 C   0  0  0  0  0  0  0  0  0  0  0  0
  2  3  1  0
  3  1  2  0
  4  7  2  0
  5  1  1  0
  6  2  2  0
  7  5  1  0
  8  1  1  0
  9  2  1  0
 10  3  1  0
 11  6  1  0
 12  7  1  0
 13  9  2  0
 14 13  1  0
 15 13  1  0
 16 10  2  0
 17 10  1  0
 18 12  1  0
 19 16  1  0
 20 17  2  0
 21 20  1  0
  6  4  1  0
 19 21  2  0
 11 14  2  0
M  CHG  2   1   1   8  -1
M  END
> <chembl_id>
CHEMBL451

> <chembl_pref_name>
CHLORDIAZEPOXIDE

$$$$

     RDKit          2D

 17 18  0  0  0  0  0  0  0  0999 V2000
    3.8375   -5.1917    0.0000 C   0  0  0  0  0  0  0  0  0  0  0  0
    3.6125   -5.8750    0.0000 N   0  0  0  0  0  0  0  0  0  0  0  0
    3.2417   -4.7625    0.0000 C   0  0  0  0  0  0  0  0  0  0  0  0
    4.4750   -4.8500    0.0000 C   0  0  0  0  0  0  0  0  0  0  0  0
    2.9375   -5.8750    0.0000 O   0  0  0  0  0  0  0  0  0  0  0  0
    2.6792   -5.1917    0.0000 C   0  0  0  0  0  0  0  0  0  0  0  0
    4.4750   -4.1542    0.0000 O   0  0  0  0  0  0  0  0  0  0  0  0
    5.0667   -5.1917    0.0000 N   0  0  0  0  0  0  0  0  0  0  0  0
    5.7000   -4.8500    0.0000 N   0  0  0  0  0  0  0  0  0  0  0  0
    6.9167   -4.8500    0.0000 C   0  0  0  0  0  0  0  0  0  0  0  0
    6.2917   -5.1917    0.0000 C   0  0  0  0  0  0  0  0  0  0  0  0
    2.0042   -4.8500    0.0000 C   0  0  0  0  0  0  0  0  0  0  0  0
    6.9042   -4.1292    0.0000 C   0  0  0  0  0  0  0  0  0  0  0  0
    7.5250   -5.2000    0.0000 C   0  0  0  0  0  0  0  0  0  0  0  0
    7.5250   -3.7792    0.0000 C   0  0  0  0  0  0  0  0  0  0  0  0
    8.1375   -4.8417    0.0000 C   0  0  0  0  0  0  0  0  0  0  0  0
    8.1375   -4.1292    0.0000 C   0  0  0  0  0  0  0  0  0  0  0  0
  2  1  2  0
  3  1  1  0
  4  1  1  0
  5  2  1  0
  6  3  2  0
  7  4  2  0
  8  4  1  0
  9  8  1  0
 10 11  1  0
 11  9  1  0
 12  6  1  0
 13 10  1  0
 14 10  2  0
 15 13  2  0
 16 14  1  0
 17 16  2  0
  5  6  1  0
 17 15  1  0
M  END
> <chembl_id>
CHEMBL1201168

> <chembl_pref_name>
ISOCARBOXAZID

$$$$

     RDKit          2D

 19 21  0  0  0  0  0  0  0  0999 V2000
    4.9000   -6.5667    0.0000 N   0  0  0  0  0  0  0  0  0  0  0  0
    5.4708   -6.9833    0.0000 C   0  0  0  0  0  0  0  0  0  0  0  0
    4.3250   -6.9875    0.0000 C   0  0  0  0  0  0  0  0  0  0  0  0
    6.0417   -6.5708    0.0000 C   0  0  0  0  0  0  0  0  0  0  0  0
    5.2542   -7.6583    0.0000 C   0  0  0  0  0  0  0  0  0  0  0  0
    4.5458   -7.6583    0.0000 C   0  0  0  0  0  0  0  0  0  0  0  0
    3.7125   -6.6333    0.0000 C   0  0  0  0  0  0  0  0  0  0  0  0
    6.6542   -6.9250    0.0000 C   0  0  0  0  0  0  0  0  0  0  0  0
    5.1208   -5.8958    0.0000 C   0  0  0  0  0  0  0  0  0  0  0  0
    5.8250   -5.8958    0.0000 C   0  0  0  0  0  0  0  0  0  0  0  0
    3.7083   -5.9250    0.0000 O   0  0  0  0  0  0  0  0  0  0  0  0
    3.1000   -6.9917    0.0000 C   0  0  0  0  0  0  0  0  0  0  0  0
    6.6500   -7.6292    0.0000 O   0  0  0  0  0  0  0  0  0  0  0  0
    7.2667   -6.5708    0.0000 O   0  0  0  0  0  0  0  0  0  0  0  0
    3.1000   -7.7042    0.0000 C   0  0  0  0  0  0  0  0  0  0  0  0
    2.4875   -6.6375    0.0000 C   0  0  0  0  0  0  0  0  0  0  0  0
    2.4875   -8.0583    0.0000 C   0  0  0  0  0  0  0  0  0  0  0  0
    1.8750   -6.9917    0.0000 C   0  0  0  0  0  0  0  0  0  0  0  0
    1.8750   -7.7042    0.0000 C   0  0  0  0  0  0  0  0  0  0  0  0
  2  1  1  0
  3  1  1  0
  4  2  1  0
  5  2  2  0
  6  3  2  0
  7  3  1  0
  8  4  1  0
  9  1  1  0
 10  9  1  0
 11  7  2  0
 12  7  1  0
 13  8  2  0
 14  8  1  0
 15 12  1  0
 16 12  2  0
 17 15  2  0
 18 16  1  0
 19 18  2  0
 10  4  1  0
  5  6  1  0
 17 19  1  0
M  END
> <chembl_id>
CHEMBL469

> <chembl_pref_name>
KETOROLAC

$$$$

     RDKit          2D

 12 12  0  0  0  0  0  0  0  0999 V2000
   -0.5209    1.3345    0.0000 C   0  0  0  0  0  0  0  0  0  0  0  0
    0.0311    0.7214    0.0000 C   0  0  0  0  0  0  0  0  0  0  0  0
    0.6986    0.2365    0.0000 C   0  0  0  0  0  0  0  0  0  0  0  0
    0.4436   -0.5482    0.0000 C   0  0  0  0  0  0  0  0  0  0  0  0
   -0.3814   -0.5482    0.0000 C   0  0  0  0  0  0  0  0  0  0  0  0
   -0.8663   -1.2156    0.0000 C   0  0  0  0  0  0  0  0  0  0  0  0
   -1.3279    1.1630    0.0000 O   0  0  0  0  0  0  0  0  0  0  0  0
    0.5832    1.3345    0.0000 O   0  0  0  0  0  0  0  0  0  0  0  0
    1.4832    0.4914    0.0000 O   0  0  0  0  0  0  0  0  0  0  0  0
    0.9285   -1.2156    0.0000 O   0  0  0  0  0  0  0  0  0  0  0  0
   -0.6363    0.2365    0.0000 O   0  0  0  0  0  0  0  0  0  0  0  0
   -0.5307   -1.9693    0.0000 O   0  0  0  0  0  0  0  0  0  0  0  0
  2  1  1  6
  1  7  1  0
  2  3  1  0
  2  8  1  1
  2 11  1  0
  3  4  1  0
  3  9  1  1
  4  5  1  0
  4 10  1  6
  5  6  1  1
  5 11  1  0
  6 12  1  0
M  END
> <chembl_id>
CHEMBL604608

> <chembl_pref_name>
FRUCTOSE

$$$$

     RDKit          2D

 13 12  0  0  0  0  0  0  0  0999 V2000
    2.6167   -5.0000    0.0000 C   0  0  0  0  0  0  0  0  0  0  0  0
    7.5292   -5.0292    0.0000 C   0  0  0  0  0  0  0  0  0  0  0  0
    2.6167   -4.2917    0.0000 O   0  0  0  0  0  0  0  0  0  0  0  0
    7.5250   -4.3167    0.0000 O   0  0  0  0  0  0  0  0  0  0  0  0
    8.1417   -5.3750    0.0000 O   0  0  0  0  0  0  0  0  0  0  0  0
    2.0000   -5.3542    0.0000 O   0  0  0  0  0  0  0  0  0  0  0  0
    6.9167   -5.3875    0.0000 C   0  0  0  0  0  0  0  0  0  0  0  0
    3.2292   -5.3542    0.0000 C   0  0  0  0  0  0  0  0  0  0  0  0
    3.8500   -5.0000    0.0000 C   0  0  0  0  0  0  0  0  0  0  0  0
    6.2917   -5.0000    0.0000 C   0  0  0  0  0  0  0  0  0  0  0  0
    5.6792   -5.3542    0.0000 C   0  0  0  0  0  0  0  0  0  0  0  0
    4.4667   -5.3542    0.0000 C   0  0  0  0  0  0  0  0  0  0  0  0
    5.0667   -5.0000    0.0000 C   0  0  0  0  0  0  0  0  0  0  0  0
  2  7  1  0
  3  1  2  0
  4  2  2  0
  5  2  1  0
  6  1  1  0
  7 10  1  0
  8  1  1  0
  9  8  1  0
 10 11  1  0
 11 13  1  0
 12  9  1  0
 13 12  1  0
M  END
> <chembl_id>
CHEMBL1238

> <chembl_pref_name>
AZELAIC ACID

$$$$

     RDKit          2D

 18 18  0  0  1  0  0  0  0  0999 V2000
   -2.2208    0.0000    0.0000 C   0  0  0  0  0  0  0  0  0  0  0  0
   -1.3500    0.4833    0.0000 O   0  0  0  0  0  0  0  0  0  0  0  0
    1.2542    0.0000    0.0000 C   0  0  0  0  0  0  0  0  0  0  0  0
   -3.1125    0.5125    0.0000 N   0  0  0  0  0  0  0  0  0  0  0  0
    2.1167    0.5125    0.0000 C   0  0  0  0  0  0  0  0  0  0  0  0
   -2.2208   -0.9917    0.0000 O   0  0  0  0  0  0  0  0  0  0  0  0
    0.3917    0.5333    0.0000 C   0  0  0  0  0  0  0  0  0  0  0  0
    2.0792    1.5208    0.0000 N   0  0  0  0  0  0  0  0  0  0  0  0
   -0.4958    0.0000    0.0000 C   0  0  0  0  0  0  0  0  0  0  0  0
    1.2542   -0.9792    0.0000 C   0  0  0  0  0  0  0  0  0  0  0  0
    0.3917   -1.5042    0.0000 C   0  0  0  0  0  0  0  0  0  0  0  0
   -3.9833    0.0000    0.0000 C   0  0  0  0  0  0  0  0  0  0  0  0
   -3.1125    1.5000    0.0000 C   0  0  0  0  0  0  0  0  0  0  0  0
   -0.4958   -0.9792    0.0000 C   0  0  0  0  0  0  0  0  0  0  0  0
    1.2042    1.9875    0.0000 C   0  0  0  0  0  0  0  0  0  0  0  0
    2.9250    2.0458    0.0000 C   0  0  0  0  0  0  0  0  0  0  0  0
    3.0042    0.0375    0.0000 C   0  0  0  0  0  0  0  0  0  0  0  0
   -4.8458    0.5125    0.0000 C   0  0  0  0  0  0  0  0  0  0  0  0
  2  1  1  0
  3  7  2  0
  4  1  1  0
  5  3  1  0
  6  1  2  0
  7  9  1  0
  8  5  1  0
  9  2  1  0
 10 11  2  0
 11 14  1  0
 12  4  1  0
 13  4  1  0
 14  9  2  0
 15  8  1  0
 16  8  1  0
  5 17  1  1
 18 12  1  0
  3 10  1  0
M  END
> <chembl_id>
CHEMBL636

> <chembl_pref_name>
RIVASTIGMINE

$$$$

     RDKit          2D

 12 12  0  0  1  0  0  0  0  0999 V2000
    4.5667   -7.1792    0.0000 C   0  0  0  0  0  0  0  0  0  0  0  0
    5.1792   -7.5375    0.0000 C   0  0  0  0  0  0  0  0  0  0  0  0
    3.9542   -7.5417    0.0000 C   0  0  0  0  0  0  0  0  0  0  0  0
    3.3375   -7.1792    0.0000 N   0  0  0  0  0  0  0  0  0  0  0  0
    4.5667   -6.4792    0.0000 O   0  0  0  0  0  0  0  0  0  0  0  0
    5.7917   -7.1875    0.0000 C   0  0  0  0  0  0  0  0  0  0  0  0
    5.1792   -8.2417    0.0000 C   0  0  0  0  0  0  0  0  0  0  0  0
    2.7250   -7.5417    0.0000 C   0  0  0  0  0  0  0  0  0  0  0  0
    3.9542   -8.2542    0.0000 C   0  0  0  0  0  0  0  0  0  0  0  0
    6.4125   -7.5292    0.0000 C   0  0  0  0  0  0  0  0  0  0  0  0
    5.8000   -8.6042    0.0000 C   0  0  0  0  0  0  0  0  0  0  0  0
    6.4125   -8.2500    0.0000 C   0  0  0  0  0  0  0  0  0  0  0  0
  2  1  1  0
  3  1  1  0
  4  3  1  0
  1  5  1  1
  6  2  1  0
  7  2  2  0
  8  4  1  0
  3  9  1  6
 10  6  2  0
 11  7  1  0
 12 10  1  0
 12 11  2  0
M  END
> <chembl_id>
CHEMBL1590

> <chembl_pref_name>
PSEUDOEPHEDRINE

$$$$

     RDKit          2D

 21 24  0  0  0  0  0  0  0  0999 V2000
    0.1917    0.1250    0.0000 N   0  0  0  0  0  0  0  0  0  0  0  0
   -0.9958   -1.5167    0.0000 C   0  0  0  0  0  0  0  0  0  0  0  0
   -1.0083   -0.2542    0.0000 C   0  0  0  0  0  0  0  0  0  0  0  0
    0.9375   -0.8750    0.0000 C   0  0  0  0  0  0  0  0  0  0  0  0
    0.2167   -1.9042    0.0000 C   0  0  0  0  0  0  0  0  0  0  0  0
   -2.1125    0.3708    0.0000 C   0  0  0  0  0  0  0  0  0  0  0  0
   -2.0875   -2.1417    0.0000 C   0  0  0  0  0  0  0  0  0  0  0  0
   -3.2083   -1.5042    0.0000 N   0  0  0  0  0  0  0  0  0  0  0  0
    0.6167    1.3208    0.0000 C   0  0  0  0  0  0  0  0  0  0  0  0
   -3.2083   -0.2875    0.0000 C   0  0  0  0  0  0  0  0  0  0  0  0
    1.8542    1.5875    0.0000 C   0  0  0  0  0  0  0  0  0  0  0  0
    2.2042   -0.8750    0.0000 C   0  0  0  0  0  0  0  0  0  0  0  0
    0.8042   -3.0292    0.0000 C   0  0  0  0  0  0  0  0  0  0  0  0
   -4.3458   -2.1125    0.0000 C   0  0  0  0  0  0  0  0  0  0  0  0
    2.2750    2.7958    0.0000 C   0  0  0  0  0  0  0  0  0  0  0  0
    2.6792    0.6375    0.0000 C   0  0  0  0  0  0  0  0  0  0  0  0
    2.1042   -3.0292    0.0000 C   0  0  0  0  0  0  0  0  0  0  0  0
    2.7500   -2.0542    0.0000 C   0  0  0  0  0  0  0  0  0  0  0  0
    3.9417    0.8833    0.0000 C   0  0  0  0  0  0  0  0  0  0  0  0
    3.5000    3.0458    0.0000 C   0  0  0  0  0  0  0  0  0  0  0  0
    4.3417    2.0833    0.0000 C   0  0  0  0  0  0  0  0  0  0  0  0
  2  3  2  0
  3  1  1  0
  4  1  1  0
  5  4  2  0
  6  3  1  0
  7  2  1  0
  8 10  1  0
  9  1  1  0
 10  6  1  0
 11  9  1  0
 12  4  1  0
 13  5  1  0
 14  8  1  0
 15 11  1  0
 16 11  2  0
 17 18  1  0
 18 12  2  0
 19 16  1  0
 20 15  2  0
 21 19  2  0
  2  5  1  0
 13 17  2  0
  7  8  1  0
 20 21  1  0
M  END
> <chembl_id>
CHEMBL1625607

> <chembl_pref_name>
MEBHYDROLIN

$$$$

     RDKit          2D

 11 11  0  0  0  0  0  0  0  0999 V2000
    8.2792   -0.9708    0.0000 C   0  0  0  0  0  0  0  0  0  0  0  0
    8.2792   -1.6833    0.0000 C   0  0  0  0  0  0  0  0  0  0  0  0
    8.8917   -0.6125    0.0000 C   0  0  0  0  0  0  0  0  0  0  0  0
    7.6667   -0.6167    0.0000 C   0  0  0  0  0  0  0  0  0  0  0  0
    7.6667   -2.0375    0.0000 C   0  0  0  0  0  0  0  0  0  0  0  0
    8.8875    0.0958    0.0000 O   0  0  0  0  0  0  0  0  0  0  0  0
    7.0542   -1.6833    0.0000 C   0  0  0  0  0  0  0  0  0  0  0  0
    8.8958   -2.0375    0.0000 O   0  0  0  0  0  0  0  0  0  0  0  0
    7.0542   -0.9750    0.0000 C   0  0  0  0  0  0  0  0  0  0  0  0
    9.5042   -0.9667    0.0000 O   0  0  0  0  0  0  0  0  0  0  0  0
    6.4417   -2.0375    0.0000 N   0  0  0  0  0  0  0  0  0  0  0  0
  2  1  1  0
  3  1  1  0
  4  1  2  0
  5  2  2  0
  6  3  2  0
  7  5  1  0
  8  2  1  0
  9  4  1  0
 10  3  1  0
 11  7  1  0
  7  9  2  0
M  END
> <chembl_id>
CHEMBL1169

> <chembl_pref_name>
AMINOSALICYLIC ACID

$$$$

     RDKit          2D

 21 23  0  0  0  0  0  0  0  0999 V2000
    5.5292   -5.1375    0.0000 C   0  0  0  0  0  0  0  0  0  0  0  0
    4.8792   -5.4375    0.0000 C   0  0  0  0  0  0  0  0  0  0  0  0
    6.1667   -5.4500    0.0000 C   0  0  0  0  0  0  0  0  0  0  0  0
    5.5292   -4.4292    0.0000 C   0  0  0  0  0  0  0  0  0  0  0  0
    4.7125   -6.1250    0.0000 C   0  0  0  0  0  0  0  0  0  0  0  0
    6.3042   -6.1417    0.0000 C   0  0  0  0  0  0  0  0  0  0  0  0
    5.1417   -6.6875    0.0000 C   0  0  0  0  0  0  0  0  0  0  0  0
    5.8542   -6.6917    0.0000 C   0  0  0  0  0  0  0  0  0  0  0  0
    6.7875   -3.0292    0.0000 N   0  0  0  0  0  0  0  0  0  0  0  0
    6.1500   -4.0875    0.0000 C   0  0  0  0  0  0  0  0  0  0  0  0
    6.6792   -4.9750    0.0000 C   0  0  0  0  0  0  0  0  0  0  0  0
    4.3625   -4.9417    0.0000 C   0  0  0  0  0  0  0  0  0  0  0  0
    6.1667   -3.3750    0.0000 C   0  0  0  0  0  0  0  0  0  0  0  0
    6.9917   -6.3667    0.0000 C   0  0  0  0  0  0  0  0  0  0  0  0
    4.0250   -6.3292    0.0000 C   0  0  0  0  0  0  0  0  0  0  0  0
    6.8000   -2.3167    0.0000 C   0  0  0  0  0  0  0  0  0  0  0  0
    7.3917   -3.3875    0.0000 C   0  0  0  0  0  0  0  0  0  0  0  0
    7.3625   -5.2000    0.0000 C   0  0  0  0  0  0  0  0  0  0  0  0
    3.6792   -5.1500    0.0000 C   0  0  0  0  0  0  0  0  0  0  0  0
    3.5125   -5.8417    0.0000 C   0  0  0  0  0  0  0  0  0  0  0  0
    7.5042   -5.8917    0.0000 C   0  0  0  0  0  0  0  0  0  0  0  0
  2  1  1  0
  3  1  1  0
  4  1  2  0
  5  2  2  0
  6  3  1  0
  7  5  1  0
  8  6  1  0
  9 13  1  0
 10  4  1  0
 11  3  2  0
 12  2  1  0
 13 10  1  0
 14  6  2  0
 15  5  1  0
 16  9  1  0
 17  9  1  0
 18 11  1  0
 19 12  2  0
 20 19  1  0
 21 18  2  0
  8  7  1  0
 21 14  1  0
 20 15  2  0
M  END
> <chembl_id>
CHEMBL629

> <chembl_pref_name>
AMITRIPTYLINE

$$$$

     RDKit          2D

 16 15  0  0  0  0  0  0  0  0999 V2000
    4.1167   -0.2375    0.0000 C   0  0  0  0  0  0  0  0  0  0  0  0
    0.4375   -0.2375    0.0000 C   0  0  0  0  0  0  0  0  0  0  0  0
    2.2792   -0.5917    0.0000 C   0  0  0  0  0  0  0  0  0  0  0  0
    1.6625   -0.2375    0.0000 C   0  0  0  0  0  0  0  0  0  0  0  0
    2.8917   -0.2375    0.0000 C   0  0  0  0  0  0  0  0  0  0  0  0
    1.0500   -0.5917    0.0000 O   0  0  0  0  0  0  0  0  0  0  0  0
    3.5042   -0.5917    0.0000 O   0  0  0  0  0  0  0  0  0  0  0  0
    4.1167    0.4708    0.0000 O   0  0  0  0  0  0  0  0  0  0  0  0
    0.4375    0.4708    0.0000 O   0  0  0  0  0  0  0  0  0  0  0  0
   -0.1750   -0.5917    0.0000 N   0  0  0  0  0  0  0  0  0  0  0  0
    4.7292   -0.5917    0.0000 N   0  0  0  0  0  0  0  0  0  0  0  0
    1.9167   -1.2042    0.0000 C   0  0  0  0  0  0  0  0  0  0  0  0
    2.6292   -1.2042    0.0000 C   0  0  0  0  0  0  0  0  0  0  0  0
    1.2125   -1.2000    0.0000 C   0  0  0  0  0  0  0  0  0  0  0  0
    2.2708   -1.8167    0.0000 C   0  0  0  0  0  0  0  0  0  0  0  0
    0.8542   -1.8083    0.0000 C   0  0  0  0  0  0  0  0  0  0  0  0
  2  6  1  0
  3  5  1  0
  4  3  1  0
  5  7  1  0
  6  4  1  0
  7  1  1  0
  8  1  2  0
  9  2  2  0
 10  2  1  0
 11  1  1  0
 12  3  1  0
 13  3  1  0
 14 12  1  0
 15 12  1  0
 16 14  1  0
M  END
> <chembl_id>
CHEMBL1200922

> <chembl_pref_name>
MEBUTAMATE

$$$$

     RDKit          2D

 16 15  0  0  0  0  0  0  0  0999 V2000
    0.5409   -4.8290    0.0000 C   0  0  0  0  0  0  0  0  0  0  0  0
    0.9502   -4.0981    0.0000 N   0  0  0  0  0  0  0  0  0  0  0  0
    1.2572   -5.2383    0.0000 C   0  0  0  0  0  0  0  0  0  0  0  0
   -0.1754   -5.2383    0.0000 C   0  0  0  0  0  0  0  0  0  0  0  0
    0.1219   -4.0981    0.0000 C   0  0  0  0  0  0  0  0  0  0  0  0
    0.5312   -3.3818    0.0000 O   0  0  0  0  0  0  0  0  0  0  0  0
    1.9735   -4.8290    0.0000 O   0  0  0  0  0  0  0  0  0  0  0  0
   -0.8966   -4.8290    0.0000 O   0  0  0  0  0  0  0  0  0  0  0  0
    4.2686   -4.0542    0.0000 C   0  0  0  0  0  0  0  0  0  0  0  0
    4.6828   -3.3427    0.0000 O   0  0  0  0  0  0  0  0  0  0  0  0
    3.5426   -4.4635    0.0000 P   0  0  0  0  0  0  0  0  0  0  0  0
    5.0921   -4.0542    0.0000 C   0  0  0  0  0  0  0  0  0  0  0  0
    2.8311   -4.0444    0.0000 O   0  0  0  0  0  0  0  0  0  0  0  0
    3.9519   -5.1798    0.0000 O   0  0  0  0  0  0  0  0  0  0  0  0
    3.1283   -5.1798    0.0000 O   0  0  0  0  0  0  0  0  0  0  0  0
    5.8084   -4.4732    0.0000 C   0  0  0  0  0  0  0  0  0  0  0  0
  2  1  1  0
  3  1  1  0
  4  1  1  0
  5  1  1  0
  6  5  1  0
  7  3  1  0
  8  4  1  0
 10  9  1  0
  9 11  1  1
 12  9  1  0
 13 11  1  0
 14 11  2  0
 15 11  1  0
 12 16  1  1
 12 10  1  0
M  END
> <chembl_id>
CHEMBL1200331

> <chembl_pref_name>
FOSFOMYCIN TROMETHAMINE

$$$$

     RDKit          2D

 23 25  0  0  0  0  0  0  0  0999 V2000
    5.8219   -2.7648    0.0000 C   0  0  0  0  0  0  0  0  0  0  0  0
    6.8998   -3.5783    0.0000 C   0  0  0  0  0  0  0  0  0  0  0  0
    6.3803   -3.1416    0.0000 C   0  0  0  0  0  0  0  0  0  0  0  0
    5.3929   -3.1416    0.0000 C   0  0  0  0  0  0  0  0  0  0  0  0
    5.2489   -2.3170    0.0000 N   0  0  0  0  0  0  0  0  0  0  0  0
    6.7619   -2.7494    0.0000 C   0  0  0  0  0  0  0  0  0  0  0  0
    4.8652   -3.8657    0.0000 C   0  0  0  0  0  0  0  0  0  0  0  0
    5.4930   -3.4853    0.0000 C   0  0  0  0  0  0  0  0  0  0  0  0
    5.1616   -1.3245    0.0000 C   0  0  0  0  0  0  0  0  0  0  0  0
    4.5642   -3.1416    0.0000 H   0  0  0  0  0  0  0  0  0  0  0  0
    6.2240   -2.0473    0.0000 H   0  0  0  0  0  0  0  0  0  0  0  0
    7.1086   -4.3683    0.0000 O   0  0  0  0  0  0  0  0  0  0  0  0
    7.8199   -4.7786    0.0000 C   0  0  0  0  0  0  0  0  0  0  0  0
    8.5363   -4.3700    0.0000 C   0  0  0  0  0  0  0  0  0  0  0  0
    7.8180   -5.6038    0.0000 O   0  0  0  0  0  0  0  0  0  0  0  0
    9.2506   -4.7821    0.0000 C   0  0  0  0  0  0  0  0  0  0  0  0
    8.5383   -3.5446    0.0000 C   0  0  0  0  0  0  0  0  0  0  0  0
    9.2547   -3.1314    0.0000 O   0  0  0  0  0  0  0  0  0  0  0  0
    9.2508   -5.6071    0.0000 C   0  0  0  0  0  0  0  0  0  0  0  0
    9.9654   -6.0194    0.0000 C   0  0  0  0  0  0  0  0  0  0  0  0
   10.6798   -5.6067    0.0000 C   0  0  0  0  0  0  0  0  0  0  0  0
   10.6796   -4.7816    0.0000 C   0  0  0  0  0  0  0  0  0  0  0  0
    9.9650   -4.3694    0.0000 C   0  0  0  0  0  0  0  0  0  0  0  0
  2  3  1  0
  4 10  1  1
  3  4  1  0
  1 11  1  6
  4  5  1  0
  2 12  1  6
  5  1  1  0
 12 13  1  0
  1  6  1  0
 13 14  1  0
  6  2  1  0
 13 15  2  0
  4  7  1  0
 14 16  1  0
  1  8  1  0
 14 17  1  0
  7  8  1  0
 17 18  1  0
  5  9  1  0
 16 19  1  0
 16 23  2  0
 19 20  2  0
 20 21  1  0
 21 22  2  0
 22 23  1  0
M  END
> <chembl_id>
CHEMBL517712

> <chembl_pref_name>
ATROPINE

$$$$

     RDKit          2D

 13 10  0  0  0  0  0  0  0  0999 V2000
    1.6792   -8.2792    0.0000 Na  0  0  0  0  0 15  0  0  0  0  0  0
    4.0542   -8.2167    0.0000 C   0  0  0  0  0  0  0  0  0  0  0  0
    4.6667   -7.8625    0.0000 P   0  0  0  0  0  0  0  0  0  0  0  0
    3.4375   -7.8625    0.0000 P   0  0  0  0  0  0  0  0  0  0  0  0
    5.2792   -8.2167    0.0000 O   0  0  0  0  0  0  0  0  0  0  0  0
    2.8250   -8.2167    0.0000 O   0  0  0  0  0  0  0  0  0  0  0  0
    4.3042   -7.2417    0.0000 O   0  0  0  0  0  0  0  0  0  0  0  0
    3.7875   -7.2417    0.0000 O   0  0  0  0  0  0  0  0  0  0  0  0
    4.4042   -8.8292    0.0000 O   0  0  0  0  0  0  0  0  0  0  0  0
    3.0792   -7.2417    0.0000 O   0  0  0  0  0  0  0  0  0  0  0  0
    5.0167   -7.2417    0.0000 O   0  0  0  0  0  0  0  0  0  0  0  0
    3.6917   -8.8292    0.0000 C   0  0  0  0  0  0  0  0  0  0  0  0
    6.1417   -8.2792    0.0000 Na  0  0  0  0  0 15  0  0  0  0  0  0
  3  2  1  0
  4  2  1  0
  5  3  1  0
  6  4  1  0
  7  3  2  0
  8  4  2  0
  9  2  1  0
 10  4  1  0
 11  3  1  0
 12  2  1  0
M  CHG  4   1   1   5  -1   6  -1  13   1
M  END
> <chembl_id>
CHEMBL1201042

> <chembl_pref_name>
ETIDRONATE DISODIUM

$$$$

     RDKit          2D

 21 23  0  0  0  0  0  0  0  0999 V2000
    4.4040    2.0557    0.0000 C   0  0  0  0  0  0  0  0  0  0  0  0
    4.4040    1.2307    0.0000 C   0  0  0  0  0  0  0  0  0  0  0  0
    5.1185    0.8182    0.0000 C   0  0  0  0  0  0  0  0  0  0  0  0
    5.8329    1.2307    0.0000 C   0  0  0  0  0  0  0  0  0  0  0  0
    5.8329    2.0557    0.0000 C   0  0  0  0  0  0  0  0  0  0  0  0
    5.1185    2.4682    0.0000 C   0  0  0  0  0  0  0  0  0  0  0  0
    3.6895    0.8182    0.0000 C   0  0  0  0  0  0  0  0  0  0  0  0
    2.9358    1.1538    0.0000 N   0  0  0  0  0  0  0  0  0  0  0  0
    2.3838    0.5407    0.0000 O   0  0  0  0  0  0  0  0  0  0  0  0
    2.7963   -0.1738    0.0000 C   0  0  0  0  0  0  0  0  0  0  0  0
    3.6033   -0.0023    0.0000 N   0  0  0  0  0  0  0  0  0  0  0  0
    2.4608   -0.9275    0.0000 C   0  0  0  0  0  0  0  0  0  0  0  0
    1.6403   -1.0137    0.0000 C   0  0  0  0  0  0  0  0  0  0  0  0
    1.3047   -1.7674    0.0000 C   0  0  0  0  0  0  0  0  0  0  0  0
    1.7896   -2.4348    0.0000 C   0  0  0  0  0  0  0  0  0  0  0  0
    2.6101   -2.3486    0.0000 C   0  0  0  0  0  0  0  0  0  0  0  0
    2.9457   -1.5949    0.0000 C   0  0  0  0  0  0  0  0  0  0  0  0
    3.7662   -1.5087    0.0000 F   0  0  0  0  0  0  0  0  0  0  0  0
    6.5474    0.8182    0.0000 C   0  0  0  0  0  0  0  0  0  0  0  0
    6.5474   -0.0068    0.0000 O   0  0  0  0  0  0  0  0  0  0  0  0
    7.2619    1.2307    0.0000 O   0  0  0  0  0  0  0  0  0  0  0  0
  3  4  2  0
  4  5  1  0
  5  6  2  0
  6  1  1  0
  2  7  1  0
  7  8  2  0
  8  9  1  0
  9 10  1  0
 10 11  2  0
 11  7  1  0
 10 12  1  0
 12 13  1  0
 13 14  2  0
 14 15  1  0
 15 16  2  0
 16 17  1  0
 17 12  2  0
 17 18  1  0
  4 19  1  0
  1  2  2  0
 19 20  1  0
  2  3  1  0
 19 21  2  0
M  END
> <chembl_id>
CHEMBL256997

> <chembl_pref_name>
ATALUREN

$$$$

     RDKit          2D

  2  0  0  0  0  0  0  0  0  0999 V2000
   -0.8208   -0.0542    0.0000 Na  0  0  0  0  0 15  0  0  0  0  0  0
    0.6125   -0.0542    0.0000 I   0  0  0  0  0  0  0  0  0  0  0  0
M  CHG  2   1   1   2  -1
M  END
> <chembl_id>
CHEMBL1644695

> <chembl_pref_name>
SODIUM IODIDE

$$$$

     RDKit          2D

 16 17  0  0  0  0  0  0  0  0999 V2000
   -1.1083   -0.3500    0.0000 N   0  0  0  0  0  0  0  0  0  0  0  0
   -1.3208   -1.0250    0.0000 C   0  0  0  0  0  0  0  0  0  0  0  0
   -0.3833   -0.3500    0.0000 C   0  0  0  0  0  0  0  0  0  0  0  0
   -0.7458   -1.4375    0.0000 N   0  0  0  0  0  0  0  0  0  0  0  0
   -0.1625   -1.0125    0.0000 C   0  0  0  0  0  0  0  0  0  0  0  0
   -1.9875   -1.2500    0.0000 O   0  0  0  0  0  0  0  0  0  0  0  0
    0.0417    0.2125    0.0000 O   0  0  0  0  0  0  0  0  0  0  0  0
    0.4375   -1.3625    0.0000 C   0  0  0  0  0  0  0  0  0  0  0  0
   -1.5250    0.2125    0.0000 C   0  0  0  0  0  0  0  0  0  0  0  0
    0.4417   -0.6500    0.0000 C   0  0  0  0  0  0  0  0  0  0  0  0
    0.4375   -2.0750    0.0000 C   0  0  0  0  0  0  0  0  0  0  0  0
    1.0500   -1.0125    0.0000 C   0  0  0  0  0  0  0  0  0  0  0  0
    0.4417    0.0625    0.0000 C   0  0  0  0  0  0  0  0  0  0  0  0
    1.6917   -1.3625    0.0000 C   0  0  0  0  0  0  0  0  0  0  0  0
    1.0500   -2.4250    0.0000 C   0  0  0  0  0  0  0  0  0  0  0  0
    1.6875   -2.0750    0.0000 C   0  0  0  0  0  0  0  0  0  0  0  0
  2  1  1  0
  3  1  1  0
  4  2  1  0
  5  3  1  0
  6  2  2  0
  7  3  2  0
  8  5  1  0
  9  1  1  0
 10  5  1  0
 11  8  1  0
 12  8  2  0
 13 10  1  0
 14 12  1  0
 15 11  2  0
 16 14  2  0
  4  5  1  0
 16 15  1  0
M  END
> <chembl_id>
CHEMBL861

> <chembl_pref_name>
MEPHENYTOIN

$$$$

     RDKit          2D

 21 21  0  0  0  0  0  0  0  0999 V2000
    3.5792   -1.2667    0.0000 C   0  0  0  0  0  0  0  0  0  0  0  0
    2.9625   -1.6208    0.0000 C   0  0  0  0  0  0  0  0  0  0  0  0
    2.3333   -2.7042    0.0000 C   0  0  0  0  0  0  0  0  0  0  0  0
    2.9625   -2.3417    0.0000 C   0  0  0  0  0  0  0  0  0  0  0  0
    1.7125   -2.3375    0.0000 C   0  0  0  0  0  0  0  0  0  0  0  0
    3.5583   -0.5708    0.0000 O   0  0  0  0  0  0  0  0  0  0  0  0
    2.3417   -1.2625    0.0000 C   0  0  0  0  0  0  0  0  0  0  0  0
    1.7125   -1.6250    0.0000 C   0  0  0  0  0  0  0  0  0  0  0  0
    2.3333   -3.4208    0.0000 N   0  0  0  0  0  0  0  0  0  0  0  0
    4.1667   -1.6375    0.0000 O   0  0  0  0  0  0  0  0  0  0  0  0
    6.0125   -1.3625    0.0000 N   0  0  0  0  0  0  0  0  0  0  0  0
    1.0833   -2.6917    0.0000 O   0  0  0  0  0  0  0  0  0  0  0  0
    4.8000   -1.3208    0.0000 C   0  0  0  0  0  0  0  0  0  0  0  0
    5.3917   -1.6958    0.0000 C   0  0  0  0  0  0  0  0  0  0  0  0
    6.6125   -1.7250    0.0000 C   0  0  0  0  0  0  0  0  0  0  0  0
    6.0500   -0.6792    0.0000 C   0  0  0  0  0  0  0  0  0  0  0  0
    0.4667   -2.3250    0.0000 C   0  0  0  0  0  0  0  0  0  0  0  0
   -0.1542   -2.6750    0.0000 C   0  0  0  0  0  0  0  0  0  0  0  0
    7.2292   -1.3958    0.0000 C   0  0  0  0  0  0  0  0  0  0  0  0
    6.7000   -0.3625    0.0000 C   0  0  0  0  0  0  0  0  0  0  0  0
   -0.7583   -2.3167    0.0000 C   0  0  0  0  0  0  0  0  0  0  0  0
  2  1  1  0
  3  4  2  0
  4  2  1  0
  5  8  2  0
  6  1  2  0
  7  2  2  0
  8  7  1  0
  9  3  1  0
 10  1  1  0
 11 14  1  0
 12  5  1  0
 13 10  1  0
 14 13  1  0
 15 11  1  0
 16 11  1  0
 17 12  1  0
 18 17  1  0
 19 15  1  0
 20 16  1  0
 21 18  1  0
  5  3  1  0
M  END
> <chembl_id>
CHEMBL1196

> <chembl_pref_name>
PROPARACAINE

$$$$

     RDKit          2D

 15 15  0  0  0  0  0  0  0  0999 V2000
    6.5542  -10.3667    0.0000 Cl  0  0  0  0  0  0  0  0  0  0  0  0
    6.7542   -8.6917    0.0000 C   0  0  0  0  0  0  0  0  0  0  0  0
    7.8167   -9.3042    0.0000 C   0  0  0  0  0  0  0  0  0  0  0  0
    7.1000   -9.3042    0.0000 N   0  0  0  0  0  0  0  0  0  0  0  0
    6.9667   -8.0250    0.0000 N   0  0  0  0  0  0  0  0  0  0  0  0
    6.0417   -8.6917    0.0000 N   0  0  0  0  0  0  0  0  0  0  0  0
    8.1750   -8.6917    0.0000 C   0  0  0  0  0  0  0  0  0  0  0  0
    8.1750   -9.9250    0.0000 C   0  0  0  0  0  0  0  0  0  0  0  0
    7.8042  -10.5417    0.0000 Cl  0  0  0  0  0  0  0  0  0  0  0  0
    7.8167   -8.0667    0.0000 Cl  0  0  0  0  0  0  0  0  0  0  0  0
    6.3917   -7.6125    0.0000 C   0  0  0  0  0  0  0  0  0  0  0  0
    5.8250   -8.0167    0.0000 C   0  0  0  0  0  0  0  0  0  0  0  0
    9.2292   -9.3042    0.0000 C   0  0  0  0  0  0  0  0  0  0  0  0
    8.8875   -8.6917    0.0000 C   0  0  0  0  0  0  0  0  0  0  0  0
    8.8875   -9.9250    0.0000 C   0  0  0  0  0  0  0  0  0  0  0  0
  3  4  1  0
  4  2  1  0
  5  2  2  0
  6  2  1  0
  7  3  1  0
  8  3  2  0
  9  8  1  0
 10  7  1  0
 11  5  1  0
 12  6  1  0
 13 15  2  0
 14  7  2  0
 15  8  1  0
 12 11  1  0
 14 13  1  0
M  END
> <chembl_id>
CHEMBL1705

> <chembl_pref_name>
CLONIDINE HYDROCHLORIDE

$$$$

     RDKit          2D

 19 18  0  0  0  0  0  0  0  0999 V2000
    5.6792   -5.5292    0.0000 Cl  0  0  0  0  0  0  0  0  0  0  0  0
    2.9500   -5.9250    0.0000 C   0  0  0  0  0  0  0  0  0  0  0  0
    4.7625   -6.9667    0.0000 C   0  0  0  0  0  0  0  0  0  0  0  0
    3.5625   -5.5667    0.0000 C   0  0  0  0  0  0  0  0  0  0  0  0
    2.3208   -5.5917    0.0000 C   0  0  0  0  0  0  0  0  0  0  0  0
    4.1625   -6.6417    0.0000 N   0  0  0  0  0  0  0  0  0  0  0  0
    2.9417   -6.6375    0.0000 C   0  0  0  0  0  0  0  0  0  0  0  0
    4.7792   -7.6500    0.0000 O   0  0  0  0  0  0  0  0  0  0  0  0
    3.5542   -6.9875    0.0000 C   0  0  0  0  0  0  0  0  0  0  0  0
    3.5375   -4.8292    0.0000 C   0  0  0  0  0  0  0  0  0  0  0  0
    2.3042   -4.8792    0.0000 C   0  0  0  0  0  0  0  0  0  0  0  0
    2.9375   -4.5042    0.0000 C   0  0  0  0  0  0  0  0  0  0  0  0
    5.9625   -6.9000    0.0000 N   0  0  0  0  0  0  0  0  0  0  0  0
    4.1750   -5.9167    0.0000 O   0  0  0  0  0  0  0  0  0  0  0  0
    2.3292   -7.0000    0.0000 O   0  0  0  0  0  0  0  0  0  0  0  0
    5.3500   -6.5792    0.0000 C   0  0  0  0  0  0  0  0  0  0  0  0
    1.6792   -4.5542    0.0000 O   0  0  0  0  0  0  0  0  0  0  0  0
    4.8917   -5.5667    0.0000 C   0  0  0  0  0  0  0  0  0  0  0  0
    1.1125   -4.9292    0.0000 C   0  0  0  0  0  0  0  0  0  0  0  0
  3  6  1  0
  4  2  2  0
  5  2  1  0
  6  9  1  0
  7  2  1  0
  8  3  2  0
  9  7  1  0
 10  4  1  0
 11  5  2  0
 12 11  1  0
 13 16  1  0
 14  4  1  0
 15  7  1  0
 16  3  1  0
 17 11  1  0
 18 14  1  0
 19 17  1  0
 12 10  2  0
M  END
> <chembl_id>
CHEMBL1200461

> <chembl_pref_name>
MIDODRINE HYDROCHLORIDE

$$$$

     RDKit          2D

 13 13  0  0  0  0  0  0  0  0999 V2000
   19.8052   -4.2758    0.0000 C   0  0  0  0  0  0  0  0  0  0  0  0
   19.8040   -5.0953    0.0000 C   0  0  0  0  0  0  0  0  0  0  0  0
   20.5121   -5.5043    0.0000 C   0  0  0  0  0  0  0  0  0  0  0  0
   21.2217   -5.0948    0.0000 C   0  0  0  0  0  0  0  0  0  0  0  0
   21.2189   -4.2722    0.0000 C   0  0  0  0  0  0  0  0  0  0  0  0
   20.5103   -3.8669    0.0000 C   0  0  0  0  0  0  0  0  0  0  0  0
   20.5078   -3.0497    0.0000 C   0  0  0  0  0  0  0  0  0  0  0  0
   21.2143   -2.6390    0.0000 O   0  0  0  0  0  0  0  0  0  0  0  0
   19.7989   -2.6432    0.0000 O   0  0  0  0  0  0  0  0  0  0  0  0
   21.9250   -3.8609    0.0000 O   0  0  0  0  0  0  0  0  0  0  0  0
   22.6343   -4.2668    0.0000 C   0  0  0  0  0  0  0  0  0  0  0  0
   23.3405   -3.8556    0.0000 C   0  0  0  0  0  0  0  0  0  0  0  0
   22.6374   -5.0840    0.0000 O   0  0  0  0  0  0  0  0  0  0  0  0
  1  2  2  0
  2  3  1  0
  3  4  2  0
  4  5  1  0
  5  6  2  0
  6  1  1  0
  6  7  1  0
  7  8  1  0
  7  9  2  0
  5 10  1  0
 10 11  1  0
 11 12  1  0
 11 13  2  0
M  END
> <chembl_id>
CHEMBL25

> <chembl_pref_name>
ASPIRIN

$$$$

     RDKit          2D

 13 13  0  0  0  0  0  0  0  0999 V2000
    2.9792   -0.5292    0.0000 C   0  0  0  0  0  0  0  0  0  0  0  0
    2.3750    0.5208    0.0000 N   0  0  0  0  0  0  0  0  0  0  0  0
    4.2042   -0.5292    0.0000 O   0  0  0  0  0  0  0  0  0  0  0  0
    1.1542    0.5208    0.0000 C   0  0  0  0  0  0  0  0  0  0  0  0
   -1.2958    0.5208    0.0000 C   0  0  0  0  0  0  0  0  0  0  0  0
    0.5375   -0.5292    0.0000 C   0  0  0  0  0  0  0  0  0  0  0  0
    0.5375    1.5833    0.0000 C   0  0  0  0  0  0  0  0  0  0  0  0
   -0.6875    1.5833    0.0000 C   0  0  0  0  0  0  0  0  0  0  0  0
   -0.6875   -0.5292    0.0000 C   0  0  0  0  0  0  0  0  0  0  0  0
   -2.5083    0.5208    0.0000 O   0  0  0  0  0  0  0  0  0  0  0  0
    2.3750   -1.5792    0.0000 C   0  0  0  0  0  0  0  0  0  0  0  0
   -3.1250   -0.5292    0.0000 C   0  0  0  0  0  0  0  0  0  0  0  0
   -4.3458   -0.5292    0.0000 C   0  0  0  0  0  0  0  0  0  0  0  0
  2  1  1  0
  3  1  2  0
  4  2  1  0
  5  8  1  0
  6  4  2  0
  7  4  1  0
  8  7  2  0
  9  6  1  0
 10  5  1  0
 11  1  1  0
 12 10  1  0
 13 12  1  0
  9  5  2  0
M  END
> <chembl_id>
CHEMBL16073

> <chembl_pref_name>
PHENACETIN

$$$$

     RDKit          2D

 13  6  0  0  0  0  0  0  0  0999 V2000
    3.7232   -2.9464    0.0000 O   0  0  0  0  0  0  0  0  0  0  0  0
    0.8137   -0.2843    0.0000 C   0  0  0  0  0  0  0  0  0  0  0  0
    1.6272   -0.2843    0.0000 O   0  0  0  0  0  0  0  0  0  0  0  0
    0.3676    0.4705    0.0000 O   0  0  0  0  0  0  0  0  0  0  0  0
    0.3676   -0.9802    0.0000 C   0  0  0  0  0  0  0  0  0  0  0  0
    4.6758   -0.2843    0.0000 C   0  0  0  0  0  0  0  0  0  0  0  0
    3.8524   -0.2843    0.0000 O   0  0  0  0  0  0  0  0  0  0  0  0
    5.1120    0.4705    0.0000 O   0  0  0  0  0  0  0  0  0  0  0  0
    5.1120   -0.9802    0.0000 C   0  0  0  0  0  0  0  0  0  0  0  0
    2.6026   -0.2990    0.0000 Mg  0  0  0  0  0 15  0  0  0  0  0  0
    2.7496   -1.3822    0.0000 O   0  0  0  0  0  0  0  0  0  0  0  0
    4.1250   -1.9286    0.0000 O   0  0  0  0  0  0  0  0  0  0  0  0
    2.3036   -2.6250    0.0000 O   0  0  0  0  0  0  0  0  0  0  0  0
  5  2  1  0
  3  2  1  0
  4  2  2  0
  7  6  1  0
  8  6  2  0
  9  6  1  0
M  CHG  3   3  -1   7  -1  10   2
M  END
> <chembl_id>
CHEMBL3989858

> <chembl_pref_name>
MAGNESIUM ACETATE TETRAHYDRATE

$$$$

     RDKit          2D

 18 17  0  0  0  0  0  0  0  0999 V2000
    5.7667   -8.1167    0.0000 Cl  0  0  0  0  0  0  0  0  0  0  0  0
    4.6042   -7.0542    0.0000 C   0  0  0  0  0  0  0  0  0  0  0  0
    3.9792   -7.4042    0.0000 C   0  0  0  0  0  0  0  0  0  0  0  0
    4.6167   -6.3542    0.0000 O   0  0  0  0  0  0  0  0  0  0  0  0
    5.2042   -7.4292    0.0000 N   0  0  0  0  0  0  0  0  0  0  0  0
    3.3750   -7.0417    0.0000 C   0  0  0  0  0  0  0  0  0  0  0  0
    3.9667   -8.1167    0.0000 C   0  0  0  0  0  0  0  0  0  0  0  0
    2.7292   -8.0917    0.0000 C   0  0  0  0  0  0  0  0  0  0  0  0
    7.0667   -7.1042    0.0000 N   0  0  0  0  0  0  0  0  0  0  0  0
    2.1125   -8.4375    0.0000 N   0  0  0  0  0  0  0  0  0  0  0  0
    3.3417   -8.4625    0.0000 C   0  0  0  0  0  0  0  0  0  0  0  0
    2.7417   -7.3792    0.0000 C   0  0  0  0  0  0  0  0  0  0  0  0
    5.8292   -7.0875    0.0000 C   0  0  0  0  0  0  0  0  0  0  0  0
    6.4417   -7.4500    0.0000 C   0  0  0  0  0  0  0  0  0  0  0  0
    7.6792   -7.4792    0.0000 C   0  0  0  0  0  0  0  0  0  0  0  0
    7.0792   -6.3917    0.0000 C   0  0  0  0  0  0  0  0  0  0  0  0
    8.3042   -7.1292    0.0000 C   0  0  0  0  0  0  0  0  0  0  0  0
    7.7042   -6.0542    0.0000 C   0  0  0  0  0  0  0  0  0  0  0  0
  3  2  1  0
  4  2  2  0
  5  2  1  0
  6  3  1  0
  7  3  2  0
  8 11  2  0
  9 14  1  0
 10  8  1  0
 11  7  1  0
 12  6  2  0
 13  5  1  0
 14 13  1  0
 15  9  1  0
 16  9  1  0
 17 15  1  0
 18 16  1  0
  8 12  1  0
M  END
> <chembl_id>
CHEMBL605

> <chembl_pref_name>
PROCAINAMIDE HYDROCHLORIDE

$$$$

     RDKit          2D

 14 15  0  0  0  0  0  0  0  0999 V2000
   -2.4043    0.6158    0.0000 C   0  0  0  0  0  0  0  0  0  0  0  0
   -1.6887    1.0263    0.0000 C   0  0  0  0  0  0  0  0  0  0  0  0
   -1.6887    1.8519    0.0000 C   0  0  0  0  0  0  0  0  0  0  0  0
   -2.4043    2.2669    0.0000 C   0  0  0  0  0  0  0  0  0  0  0  0
   -3.1153    1.0263    0.0000 C   0  0  0  0  0  0  0  0  0  0  0  0
   -3.1153    1.8564    0.0000 C   0  0  0  0  0  0  0  0  0  0  0  0
   -3.9048    2.1131    0.0000 N   0  0  0  0  0  0  0  0  0  0  0  0
   -4.3930    1.4414    0.0000 C   0  0  0  0  0  0  0  0  0  0  0  0
   -3.9049    0.7699    0.0000 S   0  0  0  0  0  0  0  0  0  0  0  0
   -5.2140    1.4414    0.0000 N   0  0  0  0  0  0  0  0  0  0  0  0
   -0.9782    0.6148    0.0000 N   0  0  0  0  0  0  0  0  0  0  0  0
   -0.2667    1.0243    0.0000 C   0  0  0  0  0  0  0  0  0  0  0  0
    0.4438    0.6128    0.0000 C   0  0  0  0  0  0  0  0  0  0  0  0
    1.1554    1.0224    0.0000 C   0  0  0  0  0  0  0  0  0  0  0  0
  1  2  1  0
  2  3  1  0
  6  7  1  0
  7  8  2  0
  8  9  1  0
  9  5  1  0
  3  4  1  0
  8 10  1  0
  5  6  2  0
  2 11  1  6
 11 12  1  0
  6  4  1  0
 12 13  1  0
  5  1  1  0
 13 14  1  0
M  END
> <chembl_id>
CHEMBL301265

> <chembl_pref_name>
PRAMIPEXOLE

$$$$

     RDKit          2D

 19 20  0  0  0  0  0  0  0  0999 V2000
    5.4250   -5.5042    0.0000 C   0  0  0  0  0  0  0  0  0  0  0  0
    6.0292   -5.1375    0.0000 C   0  0  0  0  0  0  0  0  0  0  0  0
    5.4292   -6.2042    0.0000 C   0  0  0  0  0  0  0  0  0  0  0  0
    2.9625   -5.5167    0.0000 N   0  0  0  0  0  0  0  0  0  0  0  0
    4.8125   -5.1417    0.0000 O   0  0  0  0  0  0  0  0  0  0  0  0
    4.1917   -5.5125    0.0000 C   0  0  0  0  0  0  0  0  0  0  0  0
    3.5792   -5.1625    0.0000 C   0  0  0  0  0  0  0  0  0  0  0  0
    6.0417   -6.5500    0.0000 C   0  0  0  0  0  0  0  0  0  0  0  0
    4.8250   -6.5625    0.0000 C   0  0  0  0  0  0  0  0  0  0  0  0
    6.0292   -4.4292    0.0000 C   0  0  0  0  0  0  0  0  0  0  0  0
    6.6542   -5.4792    0.0000 C   0  0  0  0  0  0  0  0  0  0  0  0
    2.3417   -5.1667    0.0000 C   0  0  0  0  0  0  0  0  0  0  0  0
    2.9667   -6.2167    0.0000 C   0  0  0  0  0  0  0  0  0  0  0  0
    4.8292   -7.2750    0.0000 C   0  0  0  0  0  0  0  0  0  0  0  0
    6.6417   -4.0667    0.0000 C   0  0  0  0  0  0  0  0  0  0  0  0
    7.2750   -5.1292    0.0000 C   0  0  0  0  0  0  0  0  0  0  0  0
    6.0500   -7.2667    0.0000 C   0  0  0  0  0  0  0  0  0  0  0  0
    7.2667   -4.4167    0.0000 C   0  0  0  0  0  0  0  0  0  0  0  0
    5.4375   -7.6292    0.0000 C   0  0  0  0  0  0  0  0  0  0  0  0
  2  1  1  0
  3  1  1  0
  4  7  1  0
  5  1  1  0
  6  5  1  0
  7  6  1  0
  8  3  1  0
  9  3  2  0
 10  2  1  0
 11  2  2  0
 12  4  1  0
 13  4  1  0
 14  9  1  0
 15 10  2  0
 16 11  1  0
 17  8  2  0
 18 15  1  0
 19 14  2  0
 19 17  1  0
 18 16  2  0
M  END
> <chembl_id>
CHEMBL657

> <chembl_pref_name>
DIPHENHYDRAMINE

$$$$

     RDKit          2D

 15 16  0  0  0  0  0  0  0  0999 V2000
    3.5492   -0.5299    0.0000 S   0  0  0  0  0  0  0  0  0  0  0  0
    7.9062    0.1375    0.0000 F   0  0  0  0  0  0  0  0  0  0  0  0
    6.7792    0.4395    0.0000 F   0  0  0  0  0  0  0  0  0  0  0  0
    7.6042   -0.9895    0.0000 F   0  0  0  0  0  0  0  0  0  0  0  0
    6.4772   -0.6875    0.0000 O   0  0  0  0  0  0  0  0  0  0  0  0
    3.5492    0.8049    0.0000 N   0  0  0  0  0  0  0  0  0  0  0  0
    2.2393    0.1375    0.0000 N   0  0  0  0  0  0  0  0  0  0  0  0
    4.3338   -0.2750    0.0000 C   0  0  0  0  0  0  0  0  0  0  0  0
    4.3338    0.5500    0.0000 C   0  0  0  0  0  0  0  0  0  0  0  0
    5.7628   -0.2750    0.0000 C   0  0  0  0  0  0  0  0  0  0  0  0
    5.0483   -0.6875    0.0000 C   0  0  0  0  0  0  0  0  0  0  0  0
    3.0643    0.1375    0.0000 C   0  0  0  0  0  0  0  0  0  0  0  0
    5.0483    0.9625    0.0000 C   0  0  0  0  0  0  0  0  0  0  0  0
    7.1917   -0.2750    0.0000 C   0  0  0  0  0  0  0  0  0  0  0  0
    5.7628    0.5500    0.0000 C   0  0  0  0  0  0  0  0  0  0  0  0
  1  8  1  0
  1 12  1  0
  2 14  1  0
  3 14  1  0
  4 14  1  0
  5 10  1  0
  5 14  1  0
  6  9  1  0
  6 12  2  0
  7 12  1  0
  8  9  1  0
  8 11  2  0
  9 13  2  0
 10 11  1  0
 10 15  2  0
 13 15  1  0
M  END
> <chembl_id>
CHEMBL744

> <chembl_pref_name>
RILUZOLE

$$$$

     RDKit          2D

 17 18  0  0  0  0  0  0  0  0999 V2000
    9.2417    0.2500    0.0000 S   0  0  0  0  0  0  0  0  0  0  0  0
   10.4667    0.2500    0.0000 C   0  0  0  0  0  0  0  0  0  0  0  0
    9.8542    0.6083    0.0000 N   0  0  0  0  0  0  0  0  0  0  0  0
   11.0375    0.6708    0.0000 S   0  0  0  0  0  0  0  0  0  0  0  0
   10.6792   -0.4167    0.0000 N   0  0  0  0  0  0  0  0  0  0  0  0
   11.3917   -0.4167    0.0000 N   0  0  0  0  0  0  0  0  0  0  0  0
   11.6125    0.2500    0.0000 C   0  0  0  0  0  0  0  0  0  0  0  0
    8.6292    0.6083    0.0000 C   0  0  0  0  0  0  0  0  0  0  0  0
    9.5875   -0.3667    0.0000 O   0  0  0  0  0  0  0  0  0  0  0  0
    8.8792   -0.3667    0.0000 O   0  0  0  0  0  0  0  0  0  0  0  0
    8.6292    1.3208    0.0000 C   0  0  0  0  0  0  0  0  0  0  0  0
    8.0167    0.2583    0.0000 C   0  0  0  0  0  0  0  0  0  0  0  0
    7.4042    1.3208    0.0000 C   0  0  0  0  0  0  0  0  0  0  0  0
    6.7917    1.6750    0.0000 N   0  0  0  0  0  0  0  0  0  0  0  0
    7.4042    0.6083    0.0000 C   0  0  0  0  0  0  0  0  0  0  0  0
    8.0167    1.6750    0.0000 C   0  0  0  0  0  0  0  0  0  0  0  0
   12.2250    0.6083    0.0000 C   0  0  0  0  0  0  0  0  0  0  0  0
  2  3  1  0
  3  1  1  0
  4  2  1  0
  5  2  2  0
  6  5  1  0
  7  4  1  0
  8  1  1  0
  9  1  2  0
 10  1  2  0
 11  8  1  0
 12  8  2  0
 13 15  2  0
 14 13  1  0
 15 12  1  0
 16 11  2  0
 17  7  1  0
 16 13  1  0
  7  6  2  0
M  END
> <chembl_id>
CHEMBL1191

> <chembl_pref_name>
SULFAMETHIZOLE

$$$$

     RDKit          2D

 16 17  0  0  0  0  0  0  0  0999 V2000
    5.8292   -7.1542    0.0000 Cl  0  0  0  0  0  0  0  0  0  0  0  0
    5.7167   -6.1000    0.0000 C   0  0  0  0  0  0  0  0  0  0  0  0
    5.0917   -6.4542    0.0000 C   0  0  0  0  0  0  0  0  0  0  0  0
    4.4917   -6.0917    0.0000 C   0  0  0  0  0  0  0  0  0  0  0  0
    5.9292   -5.4250    0.0000 N   0  0  0  0  0  0  0  0  0  0  0  0
    6.2917   -6.5167    0.0000 N   0  0  0  0  0  0  0  0  0  0  0  0
    3.8667   -6.4417    0.0000 C   0  0  0  0  0  0  0  0  0  0  0  0
    5.0917   -7.1625    0.0000 C   0  0  0  0  0  0  0  0  0  0  0  0
    6.6417   -5.4292    0.0000 C   0  0  0  0  0  0  0  0  0  0  0  0
    4.4917   -5.3917    0.0000 C   0  0  0  0  0  0  0  0  0  0  0  0
    6.8667   -6.0917    0.0000 C   0  0  0  0  0  0  0  0  0  0  0  0
    4.4750   -7.5167    0.0000 C   0  0  0  0  0  0  0  0  0  0  0  0
    3.8667   -7.1542    0.0000 C   0  0  0  0  0  0  0  0  0  0  0  0
    3.2542   -6.0792    0.0000 C   0  0  0  0  0  0  0  0  0  0  0  0
    3.8792   -5.0250    0.0000 C   0  0  0  0  0  0  0  0  0  0  0  0
    3.2625   -5.3792    0.0000 C   0  0  0  0  0  0  0  0  0  0  0  0
  3  2  1  0
  4  3  1  0
  5  2  2  0
  6  2  1  0
  7  4  1  0
  8  3  1  0
  9  5  1  0
 10  4  2  0
 11  6  1  0
 12  8  1  0
 13 12  1  0
 14  7  2  0
 15 10  1  0
 16 15  2  0
  9 11  1  0
 13  7  1  0
 16 14  1  0
M  END
> <chembl_id>
CHEMBL1200413

> <chembl_pref_name>
TETRAHYDROZOLINE HYDROCHLORIDE

$$$$

     RDKit          2D

 19 20  0  0  0  0  0  0  0  0999 V2000
   -3.8959  -15.0012    0.0000 S   0  0  0  0  0  0  0  0  0  0  0  0
    1.0816  -16.1379    0.0000 C   0  0  0  0  0  0  0  0  0  0  0  0
   -2.2459  -15.0012    0.0000 N   0  0  0  0  0  0  0  0  0  0  0  0
   -3.4834  -14.2909    0.0000 C   0  0  0  0  0  0  0  0  0  0  0  0
    0.2934  -16.3900    0.0000 O   0  0  0  0  0  0  0  0  0  0  0  0
   -1.4209  -15.0012    0.0000 N   0  0  0  0  0  0  0  0  0  0  0  0
   -3.4834  -15.7254    0.0000 C   0  0  0  0  0  0  0  0  0  0  0  0
   -2.6584  -14.2909    0.0000 C   0  0  0  0  0  0  0  0  0  0  0  0
    1.0816  -15.3129    0.0000 C   0  0  0  0  0  0  0  0  0  0  0  0
   -0.1834  -15.7254    0.0000 C   0  0  0  0  0  0  0  0  0  0  0  0
   -1.0084  -15.7254    0.0000 C   0  0  0  0  0  0  0  0  0  0  0  0
   -2.6584  -15.7254    0.0000 C   0  0  0  0  0  0  0  0  0  0  0  0
    0.2934  -15.0516    0.0000 C   0  0  0  0  0  0  0  0  0  0  0  0
   -4.5284  -15.5375    0.0000 O   0  0  0  0  0  0  0  0  0  0  0  0
   -4.5284  -14.4787    0.0000 O   0  0  0  0  0  0  0  0  0  0  0  0
   -2.2459  -13.5759    0.0000 C   0  0  0  0  0  0  0  0  0  0  0  0
    1.8000  -16.5464    0.0000 N   0  0  0  0  0  0  0  0  0  0  0  0
    2.5124  -16.1303    0.0000 O   0  0  0  0  0  0  0  0  0  0  0  0
    1.8043  -17.3714    0.0000 O   0  0  0  0  0  0  0  0  0  0  0  0
  4  1  1  0
  5 10  1  0
  6  3  1  0
  7  1  1  0
  8  4  1  0
  9 13  1  0
 10 11  1  0
 11  6  2  0
 12  7  1  0
 13 10  2  0
 14  1  2  0
 15  1  2  0
 16  8  1  0
  8  3  1  0
  9  2  2  0
  2  5  1  0
  3 12  1  0
 17 18  2  0
 17 19  1  0
  2 17  1  0
M  CHG  2  17   1  19  -1
M  END
> <chembl_id>
CHEMBL290960

> <chembl_pref_name>
NIFURTIMOX

$$$$

     RDKit          2D

 16 16  0  0  0  0  0  0  0  0999 V2000
    6.1542   -6.8875    0.0000 K   0  0  0  0  0 15  0  0  0  0  0  0
    4.2292   -5.5667    0.0000 N   0  0  0  0  0  0  0  0  0  0  0  0
    3.5167   -5.5625    0.0000 C   0  0  0  0  0  0  0  0  0  0  0  0
    4.9125   -5.7917    0.0000 C   0  0  0  0  0  0  0  0  0  0  0  0
    4.2417   -4.8667    0.0000 C   0  0  0  0  0  0  0  0  0  0  0  0
    5.3292   -5.2375    0.0000 C   0  0  0  0  0  0  0  0  0  0  0  0
    4.9167   -4.6542    0.0000 O   0  0  0  0  0  0  0  0  0  0  0  0
    3.5417   -4.8542    0.0000 C   0  0  0  0  0  0  0  0  0  0  0  0
    4.9042   -6.5167    0.0000 C   0  0  0  0  0  0  0  0  0  0  0  0
    6.0375   -5.2542    0.0000 C   0  0  0  0  0  0  0  0  0  0  0  0
    3.0167   -6.0667    0.0000 O   0  0  0  0  0  0  0  0  0  0  0  0
    5.4792   -6.8917    0.0000 O   0  0  0  0  0  0  0  0  0  0  0  0
    4.2542   -6.8417    0.0000 O   0  0  0  0  0  0  0  0  0  0  0  0
    6.4167   -4.6292    0.0000 C   0  0  0  0  0  0  0  0  0  0  0  0
    7.1292   -4.6417    0.0000 O   0  0  0  0  0  0  0  0  0  0  0  0
    4.2375   -4.1542    0.0000 H   0  0  0  0  0  0  0  0  0  0  0  0
  3  2  1  0
  4  2  1  0
  5  2  1  0
  6  4  1  0
  7  5  1  0
  8  5  1  0
  4  9  1  6
 10  6  2  0
 11  3  2  0
 12  9  1  0
 13  9  2  0
 14 10  1  0
 15 14  1  0
  5 16  1  6
  3  8  1  0
  6  7  1  0
M  CHG  2   1   1  12  -1
M  END
> <chembl_id>
CHEMBL1003

> <chembl_pref_name>
CLAVULANATE POTASSIUM

$$$$

     RDKit          2D

 20 22  0  0  0  0  0  0  0  0999 V2000
   -0.6708    0.0333    0.0000 C   0  0  0  0  0  0  0  0  0  0  0  0
    0.1917    1.1083    0.0000 C   0  0  0  0  0  0  0  0  0  0  0  0
   -2.9708    1.1083    0.0000 N   0  0  0  0  0  0  0  0  0  0  0  0
   -2.1083    0.0333    0.0000 C   0  0  0  0  0  0  0  0  0  0  0  0
   -0.1208    2.5000    0.0000 N   0  0  0  0  0  0  0  0  0  0  0  0
   -2.6833    2.4750    0.0000 C   0  0  0  0  0  0  0  0  0  0  0  0
    1.5542    0.8083    0.0000 C   0  0  0  0  0  0  0  0  0  0  0  0
   -1.4208    3.0958    0.0000 C   0  0  0  0  0  0  0  0  0  0  0  0
   -2.7833   -1.2125    0.0000 C   0  0  0  0  0  0  0  0  0  0  0  0
    0.0292   -1.1792    0.0000 C   0  0  0  0  0  0  0  0  0  0  0  0
   -3.7708    3.3625    0.0000 O   0  0  0  0  0  0  0  0  0  0  0  0
    1.9667   -0.5167    0.0000 C   0  0  0  0  0  0  0  0  0  0  0  0
   -0.6583   -2.4292    0.0000 C   0  0  0  0  0  0  0  0  0  0  0  0
   -2.1083   -2.4292    0.0000 C   0  0  0  0  0  0  0  0  0  0  0  0
   -4.3458    0.7833    0.0000 C   0  0  0  0  0  0  0  0  0  0  0  0
    0.0542   -3.2375    0.0000 Cl  0  0  0  0  0  0  0  0  0  0  0  0
    2.5167    1.8458    0.0000 C   0  0  0  0  0  0  0  0  0  0  0  0
    3.3500   -0.8542    0.0000 C   0  0  0  0  0  0  0  0  0  0  0  0
    3.9125    1.5125    0.0000 C   0  0  0  0  0  0  0  0  0  0  0  0
    4.3417    0.1833    0.0000 C   0  0  0  0  0  0  0  0  0  0  0  0
  2  1  1  0
  3  4  1  0
  4  1  2  0
  5  2  2  0
  6  3  1  0
  7  2  1  0
  8  5  1  0
  9  4  1  0
 10  1  1  0
 11  6  2  0
 12  7  2  0
 13 10  2  0
 14 13  1  0
 15  3  1  0
 16 13  1  0
 17  7  1  0
 18 12  1  0
 19 17  1  0
 20 19  1  0
  9 14  2  0
  8  6  1  0
 18 20  1  0
M  END
> <chembl_id>
CHEMBL2105527

> <chembl_pref_name>
TETRAZEPAM

$$$$

     RDKit          2D

  5  4  0  0  0  0  0  0  0  0999 V2000
   -1.1583   -0.3000    0.0000 N   0  0  0  0  0  0  0  0  0  0  0  0
   -2.4083    0.4000    0.0000 O   0  0  0  0  0  0  0  0  0  0  0  0
    0.0792    0.4000    0.0000 O   0  0  0  0  0  0  0  0  0  0  0  0
    1.3292   -0.3000    0.0000 C   0  0  0  0  0  0  0  0  0  0  0  0
    2.5875    0.4000    0.0000 C   0  0  0  0  0  0  0  0  0  0  0  0
  2  1  2  0
  3  1  1  0
  4  3  1  0
  5  4  1  0
M  END
> <chembl_id>
CHEMBL1551365

> <chembl_pref_name>
ETHYL NITRITE [SPIRIT]

$$$$

     RDKit          2D

 15 16  0  0  0  0  0  0  0  0999 V2000
    5.0917   -5.1292    0.0000 O   0  0  0  0  0  0  0  0  0  0  0  0
    4.4875   -4.7792    0.0000 C   0  0  0  0  0  0  0  0  0  0  0  0
    3.2500   -4.0667    0.0000 C   0  0  0  0  0  0  0  0  0  0  0  0
    5.7042   -4.7917    0.0000 C   0  0  0  0  0  0  0  0  0  0  0  0
    3.8542   -5.1292    0.0000 C   0  0  0  0  0  0  0  0  0  0  0  0
    4.4792   -4.0708    0.0000 C   0  0  0  0  0  0  0  0  0  0  0  0
    3.8667   -3.7167    0.0000 C   0  0  0  0  0  0  0  0  0  0  0  0
    3.2500   -4.7750    0.0000 C   0  0  0  0  0  0  0  0  0  0  0  0
    6.3292   -5.1500    0.0000 C   0  0  0  0  0  0  0  0  0  0  0  0
    2.6250   -3.7042    0.0000 O   0  0  0  0  0  0  0  0  0  0  0  0
    6.3250   -5.8542    0.0000 C   0  0  0  0  0  0  0  0  0  0  0  0
    6.9417   -4.7917    0.0000 C   0  0  0  0  0  0  0  0  0  0  0  0
    7.5667   -5.1542    0.0000 C   0  0  0  0  0  0  0  0  0  0  0  0
    6.9375   -6.2125    0.0000 C   0  0  0  0  0  0  0  0  0  0  0  0
    7.5667   -5.8625    0.0000 C   0  0  0  0  0  0  0  0  0  0  0  0
  2  1  1  0
  3  7  1  0
  4  1  1  0
  5  2  2  0
  6  2  1  0
  7  6  2  0
  8  5  1  0
  9  4  1  0
 10  3  1  0
 11  9  2  0
 12  9  1  0
 13 12  2  0
 14 11  1  0
 15 13  1  0
  3  8  2  0
 15 14  2  0
M  END
> <chembl_id>
CHEMBL1388

> <chembl_pref_name>
MONOBENZONE

$$$$

     RDKit          2D

 19 20  0  0  0  0  0  0  0  0999 V2000
    0.9000   -3.2917    0.0000 C   0  0  0  0  0  0  0  0  0  0  0  0
    1.5167   -2.9375    0.0000 C   0  0  0  0  0  0  0  0  0  0  0  0
    1.5167   -2.2292    0.0000 O   0  0  0  0  0  0  0  0  0  0  0  0
    3.9708   -2.2292    0.0000 N   0  0  0  0  0  0  0  0  0  0  0  0
    0.9000   -4.0000    0.0000 C   0  0  0  0  0  0  0  0  0  0  0  0
    2.7458   -2.2292    0.0000 C   0  0  0  0  0  0  0  0  0  0  0  0
    2.1292   -1.8750    0.0000 C   0  0  0  0  0  0  0  0  0  0  0  0
    3.3583   -1.8750    0.0000 C   0  0  0  0  0  0  0  0  0  0  0  0
    2.7417   -2.9375    0.0000 O   0  0  0  0  0  0  0  0  0  0  0  0
    4.5833   -1.8750    0.0000 C   0  0  0  0  0  0  0  0  0  0  0  0
    2.1292   -4.0000    0.0000 C   0  0  0  0  0  0  0  0  0  0  0  0
    2.1292   -3.2917    0.0000 C   0  0  0  0  0  0  0  0  0  0  0  0
    0.2792   -2.9375    0.0000 C   0  0  0  0  0  0  0  0  0  0  0  0
    1.5167   -4.3542    0.0000 C   0  0  0  0  0  0  0  0  0  0  0  0
    0.2792   -4.3542    0.0000 C   0  0  0  0  0  0  0  0  0  0  0  0
    4.5875   -1.1667    0.0000 C   0  0  0  0  0  0  0  0  0  0  0  0
    5.2000   -2.2292    0.0000 C   0  0  0  0  0  0  0  0  0  0  0  0
   -0.3333   -3.2917    0.0000 C   0  0  0  0  0  0  0  0  0  0  0  0
   -0.3333   -4.0000    0.0000 C   0  0  0  0  0  0  0  0  0  0  0  0
  2  1  1  0
  3  2  1  0
  4  8  1  0
  5  1  2  0
  6  7  1  0
  7  3  1  0
  8  6  1  0
  9  6  1  0
 10  4  1  0
 11 14  2  0
 12  2  2  0
 13  1  1  0
 14  5  1  0
 15  5  1  0
 16 10  1  0
 17 10  1  0
 18 13  2  0
 19 15  2  0
 11 12  1  0
 18 19  1  0
M  END
> <chembl_id>
CHEMBL27

> <chembl_pref_name>
PROPRANOLOL

$$$$

     RDKit          2D

 21 22  0  0  0  0  0  0  0  0999 V2000
    1.3917   -3.7542    0.0000 C   0  0  0  0  0  0  0  0  0  0  0  0
    1.4000   -3.0375    0.0000 C   0  0  0  0  0  0  0  0  0  0  0  0
    0.7625   -4.1125    0.0000 C   0  0  0  0  0  0  0  0  0  0  0  0
    2.0292   -4.0708    0.0000 C   0  0  0  0  0  0  0  0  0  0  0  0
    0.7750   -2.6667    0.0000 O   0  0  0  0  0  0  0  0  0  0  0  0
    2.0250   -2.6792    0.0000 O   0  0  0  0  0  0  0  0  0  0  0  0
    0.7417   -3.5292    0.0000 O   0  0  0  0  0  0  0  0  0  0  0  0
    3.8542   -3.0667    0.0000 N   0  0  0  0  0  0  0  0  0  0  0  0
    2.6375   -3.0500    0.0000 C   0  0  0  0  0  0  0  0  0  0  0  0
    0.5667   -4.8042    0.0000 C   0  0  0  0  0  0  0  0  0  0  0  0
    0.1792   -3.6917    0.0000 C   0  0  0  0  0  0  0  0  0  0  0  0
    3.2500   -2.7042    0.0000 C   0  0  0  0  0  0  0  0  0  0  0  0
    2.0292   -4.8000    0.0000 C   0  0  0  0  0  0  0  0  0  0  0  0
    2.6625   -3.7167    0.0000 C   0  0  0  0  0  0  0  0  0  0  0  0
    3.8417   -3.7625    0.0000 C   0  0  0  0  0  0  0  0  0  0  0  0
    4.4500   -2.7167    0.0000 C   0  0  0  0  0  0  0  0  0  0  0  0
   -0.1750   -4.8167    0.0000 C   0  0  0  0  0  0  0  0  0  0  0  0
   -0.4083   -4.1292    0.0000 C   0  0  0  0  0  0  0  0  0  0  0  0
    2.6542   -5.1500    0.0000 C   0  0  0  0  0  0  0  0  0  0  0  0
    3.2792   -4.0667    0.0000 C   0  0  0  0  0  0  0  0  0  0  0  0
    3.2792   -4.8000    0.0000 C   0  0  0  0  0  0  0  0  0  0  0  0
  2  1  1  0
  3  1  1  0
  4  1  1  0
  5  2  2  0
  6  2  1  0
  7  3  1  0
  8 12  1  0
  9  6  1  0
 10  3  1  0
 11  3  1  0
 12  9  1  0
 13  4  2  0
 14  4  1  0
 15  8  1  0
 16  8  1  0
 17 10  1  0
 18 11  1  0
 19 13  1  0
 20 14  2  0
 21 19  2  0
 18 17  1  0
 21 20  1  0
M  END
> <chembl_id>
CHEMBL1201338

> <chembl_pref_name>
CYCLOPENTOLATE

$$$$

     RDKit          2D

 11 10  0  0  0  0  0  0  0  0999 V2000
    2.6125    0.9583    0.0000 Na  0  0  0  0  0 15  0  0  0  0  0  0
   -0.9375    0.0208    0.0000 C   0  0  0  0  0  0  0  0  0  0  0  0
    0.2667    0.7458    0.0000 C   0  0  0  0  0  0  0  0  0  0  0  0
   -0.9375   -1.4042    0.0000 C   0  0  0  0  0  0  0  0  0  0  0  0
    1.5167    0.0208    0.0000 O   0  0  0  0  0  0  0  0  0  0  0  0
    0.2667    2.1875    0.0000 O   0  0  0  0  0  0  0  0  0  0  0  0
    0.2667   -2.0917    0.0000 O   0  0  0  0  0  0  0  0  0  0  0  0
   -2.2000    0.7458    0.0000 C   0  0  0  0  0  0  0  0  0  0  0  0
   -2.2000   -2.0917    0.0000 C   0  0  0  0  0  0  0  0  0  0  0  0
   -3.4625    0.0208    0.0000 C   0  0  0  0  0  0  0  0  0  0  0  0
   -3.4625   -1.4042    0.0000 C   0  0  0  0  0  0  0  0  0  0  0  0
  3  2  1  0
  4  2  1  0
  5  3  1  0
  6  3  2  0
  7  4  1  0
  8  2  2  0
  9  4  2  0
 10  8  1  0
 11 10  2  0
  9 11  1  0
M  CHG  2   1   1   5  -1
M  END
> <chembl_id>
CHEMBL447868

> <chembl_pref_name>
SODIUM SALICYLATE

$$$$

     RDKit          2D

 20 20  0  0  0  0  0  0  0  0999 V2000
    3.4792   -5.2875    0.0000 Cl  0  0  0  0  0  0  0  0  0  0  0  0
    1.6042   -3.6417    0.0000 C   0  0  0  0  0  0  0  0  0  0  0  0
    1.6167   -4.3542    0.0000 C   0  0  0  0  0  0  0  0  0  0  0  0
    2.8375   -4.3417    0.0000 C   0  0  0  0  0  0  0  0  0  0  0  0
    2.2292   -4.7042    0.0000 C   0  0  0  0  0  0  0  0  0  0  0  0
    2.2167   -3.2917    0.0000 C   0  0  0  0  0  0  0  0  0  0  0  0
    2.8292   -3.6417    0.0000 C   0  0  0  0  0  0  0  0  0  0  0  0
    4.0667   -4.3375    0.0000 C   0  0  0  0  0  0  0  0  0  0  0  0
    4.2875   -3.6667    0.0000 N   0  0  0  0  0  0  0  0  0  0  0  0
    0.9917   -3.2875    0.0000 C   0  0  0  0  0  0  0  0  0  0  0  0
    3.4542   -4.6917    0.0000 C   0  0  0  0  0  0  0  0  0  0  0  0
    4.6542   -4.7500    0.0000 N   0  0  0  0  0  0  0  0  0  0  0  0
    1.0042   -4.7167    0.0000 O   0  0  0  0  0  0  0  0  0  0  0  0
    2.2417   -5.4167    0.0000 C   0  0  0  0  0  0  0  0  0  0  0  0
    4.9917   -3.6625    0.0000 C   0  0  0  0  0  0  0  0  0  0  0  0
    3.4500   -3.2792    0.0000 C   0  0  0  0  0  0  0  0  0  0  0  0
    5.2250   -4.3208    0.0000 C   0  0  0  0  0  0  0  0  0  0  0  0
    1.3417   -2.6667    0.0000 C   0  0  0  0  0  0  0  0  0  0  0  0
    0.6292   -2.6667    0.0000 C   0  0  0  0  0  0  0  0  0  0  0  0
    0.3792   -3.6458    0.0000 C   0  0  0  0  0  0  0  0  0  0  0  0
  3  2  1  0
  4  5  1  0
  5  3  2  0
  6  2  2  0
  7  6  1  0
  8 11  1  0
  9  8  2  0
 10  2  1  0
 11  4  1  0
 12  8  1  0
 13  3  1  0
 14  5  1  0
 15  9  1  0
 16  7  1  0
 17 12  1  0
 18 10  1  0
 19 10  1  0
 20 10  1  0
  7  4  2  0
 15 17  1  0
M  END
> <chembl_id>
CHEMBL1200791

> <chembl_pref_name>
OXYMETAZOLINE HYDROCHLORIDE

$$$$

     RDKit          2D

 16 17  0  0  0  0  0  0  0  0999 V2000
    0.9083   -3.1583    0.0000 C   0  0  0  0  0  0  0  0  0  0  0  0
    1.6167   -3.1542    0.0000 S   0  0  0  0  0  0  0  0  0  0  0  0
    0.4917   -3.7375    0.0000 N   0  0  0  0  0  0  0  0  0  0  0  0
    0.4875   -2.5875    0.0000 S   0  0  0  0  0  0  0  0  0  0  0  0
   -0.1875   -2.8125    0.0000 C   0  0  0  0  0  0  0  0  0  0  0  0
   -0.1833   -3.5208    0.0000 C   0  0  0  0  0  0  0  0  0  0  0  0
   -0.8000   -2.4583    0.0000 C   0  0  0  0  0  0  0  0  0  0  0  0
    2.2292   -2.7917    0.0000 O   0  0  0  0  0  0  0  0  0  0  0  0
    1.6125   -2.4417    0.0000 O   0  0  0  0  0  0  0  0  0  0  0  0
    1.9750   -3.7667    0.0000 N   0  0  0  0  0  0  0  0  0  0  0  0
   -0.8000   -3.8792    0.0000 C   0  0  0  0  0  0  0  0  0  0  0  0
   -1.4125   -2.8125    0.0000 C   0  0  0  0  0  0  0  0  0  0  0  0
   -1.4125   -3.5250    0.0000 C   0  0  0  0  0  0  0  0  0  0  0  0
   -2.0250   -2.4583    0.0000 O   0  0  0  0  0  0  0  0  0  0  0  0
   -2.6375   -2.8125    0.0000 C   0  0  0  0  0  0  0  0  0  0  0  0
   -3.2500   -2.4583    0.0000 C   0  0  0  0  0  0  0  0  0  0  0  0
  2  1  1  0
  3  1  2  0
  4  1  1  0
  5  4  1  0
  6  3  1  0
  7  5  2  0
  8  2  2  0
  9  2  2  0
 10  2  1  0
 11  6  2  0
 12  7  1  0
 13 11  1  0
 14 12  1  0
 15 14  1  0
 16 15  1  0
  6  5  1  0
 13 12  2  0
M  END
> <chembl_id>
CHEMBL18

> <chembl_pref_name>
ETHOXZOLAMIDE

$$$$

     RDKit          2D

 17 19  0  0  0  0  0  0  0  0999 V2000
   -0.5708   -1.7417    0.0000 N   0  0  0  0  0  0  0  0  0  0  0  0
   -0.5708    0.5083    0.0000 C   0  0  0  0  0  0  0  0  0  0  0  0
    0.2042   -0.6167    0.0000 C   0  0  0  0  0  0  0  0  0  0  0  0
   -1.9208    0.0500    0.0000 C   0  0  0  0  0  0  0  0  0  0  0  0
   -1.9208   -1.3375    0.0000 C   0  0  0  0  0  0  0  0  0  0  0  0
    3.8500   -1.1042    0.0000 N   0  0  0  0  0  0  0  0  0  0  0  0
   -0.1750    1.8333    0.0000 C   0  0  0  0  0  0  0  0  0  0  0  0
    1.1417    2.0833    0.0000 C   0  0  0  0  0  0  0  0  0  0  0  0
    2.0542    1.0250    0.0000 C   0  0  0  0  0  0  0  0  0  0  0  0
   -3.1208    0.7500    0.0000 C   0  0  0  0  0  0  0  0  0  0  0  0
    4.3417    0.1750    0.0000 C   0  0  0  0  0  0  0  0  0  0  0  0
    2.4417   -1.3375    0.0000 C   0  0  0  0  0  0  0  0  0  0  0  0
   -3.1250   -2.0417    0.0000 C   0  0  0  0  0  0  0  0  0  0  0  0
    3.4542    1.2625    0.0000 C   0  0  0  0  0  0  0  0  0  0  0  0
    1.6000   -0.2292    0.0000 C   0  0  0  0  0  0  0  0  0  0  0  0
   -4.3458    0.0458    0.0000 C   0  0  0  0  0  0  0  0  0  0  0  0
   -4.3458   -1.3750    0.0000 C   0  0  0  0  0  0  0  0  0  0  0  0
  2  3  2  0
  3  1  1  0
  4  5  2  0
  5  1  1  0
  6 12  1  0
  7  2  1  0
  8  7  1  0
  9  8  1  0
 10  4  1  0
 11 14  1  0
 12 15  1  0
 13  5  1  0
 14  9  1  0
 15  9  1  0
 16 17  1  0
 17 13  2  0
  4  2  1  0
 10 16  2  0
 11  6  1  0
M  END
> <chembl_id>
CHEMBL276520

> <chembl_pref_name>
INDALPINE

$$$$

     RDKit          2D

 21 22  0  0  0  0  0  0  0  0999 V2000
    7.2292   -4.3292    0.0000 N   0  0  0  0  0  0  0  0  0  0  0  0
    6.6167   -3.9750    0.0000 C   0  0  0  0  0  0  0  0  0  0  0  0
    5.9917   -4.3292    0.0000 C   0  0  0  0  0  0  0  0  0  0  0  0
    7.2292   -5.0292    0.0000 C   0  0  0  0  0  0  0  0  0  0  0  0
    3.5375   -5.0250    0.0000 C   0  0  0  0  0  0  0  0  0  0  0  0
    4.1542   -5.3792    0.0000 C   0  0  0  0  0  0  0  0  0  0  0  0
    3.5375   -4.3292    0.0000 C   0  0  0  0  0  0  0  0  0  0  0  0
    6.6042   -5.3875    0.0000 N   0  0  0  0  0  0  0  0  0  0  0  0
    4.7750   -4.3292    0.0000 C   0  0  0  0  0  0  0  0  0  0  0  0
    5.3792   -3.9667    0.0000 C   0  0  0  0  0  0  0  0  0  0  0  0
    5.9917   -5.0292    0.0000 C   0  0  0  0  0  0  0  0  0  0  0  0
    4.1625   -3.9667    0.0000 C   0  0  0  0  0  0  0  0  0  0  0  0
    4.7792   -5.0250    0.0000 C   0  0  0  0  0  0  0  0  0  0  0  0
    6.6167   -3.2625    0.0000 N   0  0  0  0  0  0  0  0  0  0  0  0
    7.8417   -5.3875    0.0000 N   0  0  0  0  0  0  0  0  0  0  0  0
    2.9167   -5.3792    0.0000 O   0  0  0  0  0  0  0  0  0  0  0  0
    4.1625   -6.1000    0.0000 O   0  0  0  0  0  0  0  0  0  0  0  0
    2.9292   -3.9750    0.0000 O   0  0  0  0  0  0  0  0  0  0  0  0
    2.3042   -5.0167    0.0000 C   0  0  0  0  0  0  0  0  0  0  0  0
    2.9250   -3.2583    0.0000 C   0  0  0  0  0  0  0  0  0  0  0  0
    3.5500   -6.4542    0.0000 C   0  0  0  0  0  0  0  0  0  0  0  0
  2  1  2  0
  3  2  1  0
  4  1  1  0
  5  6  1  0
  6 13  2  0
  7 12  1  0
  8  4  2  0
  9 10  1  0
 10  3  1  0
 11  8  1  0
 12  9  2  0
 13  9  1  0
 14  2  1  0
 15  4  1  0
 16  5  1  0
 17  6  1  0
 18  7  1  0
 19 16  1  0
 20 18  1  0
 21 17  1  0
  3 11  2  0
  7  5  2  0
M  END
> <chembl_id>
CHEMBL22

> <chembl_pref_name>
TRIMETHOPRIM

$$$$

     RDKit          2D

  3  0  0  0  0  0  0  0  0  0999 V2000
   -0.1458   -1.1542    0.0000 Ca  0  0  0  0  0 15  0  0  0  0  0  0
    1.2042   -1.1542    0.0000 Cl  0  0  0  0  0  0  0  0  0  0  0  0
   -1.2833   -1.1542    0.0000 Cl  0  0  0  0  0  0  0  0  0  0  0  0
M  CHG  3   1   2   2  -1   3  -1
M  END
> <chembl_id>
CHEMBL1200668

> <chembl_pref_name>
CALCIUM CHLORIDE

$$$$

     RDKit          2D

 17 17  0  0  0  0  0  0  0  0999 V2000
   -1.0208    0.4875    0.0000 C   0  0  0  0  0  0  0  0  0  0  0  0
   -0.4083    0.8458    0.0000 N   0  0  0  0  0  0  0  0  0  0  0  0
    0.2000    0.5000    0.0000 C   0  0  0  0  0  0  0  0  0  0  0  0
   -1.6458    0.8375    0.0000 C   0  0  0  0  0  0  0  0  0  0  0  0
   -1.0208   -0.2167    0.0000 C   0  0  0  0  0  0  0  0  0  0  0  0
    0.2042   -0.2125    0.0000 O   0  0  0  0  0  0  0  0  0  0  0  0
    0.8167    0.8458    0.0000 C   0  0  0  0  0  0  0  0  0  0  0  0
    1.4375    0.5000    0.0000 N   0  0  0  0  0  0  0  0  0  0  0  0
   -2.2583   -0.2167    0.0000 C   0  0  0  0  0  0  0  0  0  0  0  0
   -1.6375   -0.5750    0.0000 C   0  0  0  0  0  0  0  0  0  0  0  0
   -2.2583    0.4833    0.0000 C   0  0  0  0  0  0  0  0  0  0  0  0
   -0.4000   -0.5667    0.0000 C   0  0  0  0  0  0  0  0  0  0  0  0
   -1.6458    1.5583    0.0000 C   0  0  0  0  0  0  0  0  0  0  0  0
    2.0542    0.8458    0.0000 C   0  0  0  0  0  0  0  0  0  0  0  0
    1.4417   -0.2167    0.0000 C   0  0  0  0  0  0  0  0  0  0  0  0
    2.6667    0.4875    0.0000 C   0  0  0  0  0  0  0  0  0  0  0  0
    2.0542   -0.5750    0.0000 C   0  0  0  0  0  0  0  0  0  0  0  0
  2  1  1  0
  3  2  1  0
  4  1  2  0
  5  1  1  0
  6  3  2  0
  7  3  1  0
  8  7  1  0
  9 10  1  0
 10  5  2  0
 11  4  1  0
 12  5  1  0
 13  4  1  0
 14  8  1  0
 15  8  1  0
 16 14  1  0
 17 15  1  0
  9 11  2  0
M  END
> <chembl_id>
CHEMBL79

> <chembl_pref_name>
LIDOCAINE

$$$$

     RDKit          2D

 10 10  0  0  0  0  0  0  0  0999 V2000
    0.1542    0.8458    0.0000 N   0  0  0  0  0  0  0  0  0  0  0  0
   -1.0208    1.7125    0.0000 C   0  0  0  0  0  0  0  0  0  0  0  0
    0.1500   -0.6000    0.0000 C   0  0  0  0  0  0  0  0  0  0  0  0
    1.4042   -1.3625    0.0000 C   0  0  0  0  0  0  0  0  0  0  0  0
   -2.4083    1.2375    0.0000 O   0  0  0  0  0  0  0  0  0  0  0  0
    1.4375   -2.8542    0.0000 O   0  0  0  0  0  0  0  0  0  0  0  0
    2.4792   -1.0292    0.0000 N   0  0  0  0  0  0  0  0  0  0  0  0
    1.3375    1.7125    0.0000 C   0  0  0  0  0  0  0  0  0  0  0  0
   -0.5750    3.1083    0.0000 C   0  0  0  0  0  0  0  0  0  0  0  0
    0.8875    3.1208    0.0000 C   0  0  0  0  0  0  0  0  0  0  0  0
  2  1  1  0
  3  1  1  0
  4  3  1  0
  5  2  2  0
  6  4  2  0
  7  4  1  0
  8  1  1  0
  9  2  1  0
 10  8  1  0
  9 10  1  0
M  END
> <chembl_id>
CHEMBL36715

> <chembl_pref_name>
PIRACETAM

$$$$

     RDKit          2D

 20 20  0  0  0  0  0  0  0  0999 V2000
    5.2750   -5.5625    0.0000 Cl  0  0  0  0  0  0  0  0  0  0  0  0
    5.7500   -7.3667    0.0000 N   0  0  0  0  0  0  0  0  0  0  0  0
    6.1625   -6.7875    0.0000 C   0  0  0  0  0  0  0  0  0  0  0  0
    5.0500   -7.1167    0.0000 C   0  0  0  0  0  0  0  0  0  0  0  0
    5.0500   -6.4167    0.0000 C   0  0  0  0  0  0  0  0  0  0  0  0
    5.7500   -6.2042    0.0000 C   0  0  0  0  0  0  0  0  0  0  0  0
    4.4292   -6.0750    0.0000 C   0  0  0  0  0  0  0  0  0  0  0  0
    6.8667   -6.7875    0.0000 O   0  0  0  0  0  0  0  0  0  0  0  0
    4.4292   -5.3792    0.0000 C   0  0  0  0  0  0  0  0  0  0  0  0
    3.2125   -5.3792    0.0000 N   0  0  0  0  0  0  0  0  0  0  0  0
    3.8292   -5.0292    0.0000 C   0  0  0  0  0  0  0  0  0  0  0  0
    4.4292   -7.5000    0.0000 C   0  0  0  0  0  0  0  0  0  0  0  0
    3.8167   -7.1167    0.0000 C   0  0  0  0  0  0  0  0  0  0  0  0
    3.8167   -6.4375    0.0000 C   0  0  0  0  0  0  0  0  0  0  0  0
    2.6000   -5.0292    0.0000 C   0  0  0  0  0  0  0  0  0  0  0  0
    3.2125   -6.0750    0.0000 C   0  0  0  0  0  0  0  0  0  0  0  0
    1.9792   -5.3792    0.0000 C   0  0  0  0  0  0  0  0  0  0  0  0
    2.6000   -6.4375    0.0000 C   0  0  0  0  0  0  0  0  0  0  0  0
    1.3625   -5.0292    0.0000 C   0  0  0  0  0  0  0  0  0  0  0  0
    1.9792   -6.0750    0.0000 C   0  0  0  0  0  0  0  0  0  0  0  0
  3  2  1  0
  4  2  1  0
  5  4  2  0
  6  3  1  0
  7  5  1  0
  8  3  2  0
  9  7  1  0
 10 11  1  0
 11  9  1  0
 12  4  1  0
 13 12  2  0
 14 13  1  0
 15 10  1  0
 16 10  1  0
 17 15  1  0
 18 16  1  0
 19 17  1  0
 20 18  1  0
  6  5  1  0
 14  7  2  0
M  END
> <chembl_id>
CHEMBL1200411

> <chembl_pref_name>
ROPINIROLE HYDROCHLORIDE

$$$$

     RDKit          2D

  5  3  0  0  0  0  0  0  0  0999 V2000
    4.9917   -2.4375    0.0000 Mg  0  0  0  0  0 15  0  0  0  0  0  0
    3.6125   -2.4958    0.0000 C   0  0  0  0  0  0  0  0  0  0  0  0
    3.9792   -3.1042    0.0000 O   0  0  0  0  0  0  0  0  0  0  0  0
    3.9708   -1.8958    0.0000 O   0  0  0  0  0  0  0  0  0  0  0  0
    2.8917   -2.5125    0.0000 O   0  0  0  0  0  0  0  0  0  0  0  0
  3  2  1  0
  4  2  1  0
  5  2  2  0
M  CHG  3   1   2   3  -1   4  -1
M  END
> <chembl_id>
CHEMBL1200736

> <chembl_pref_name>
MAGNESIUM CARBONATE

$$$$

     RDKit          2D

 15 13  0  0  0  0  0  0  0  0999 V2000
    3.0542    0.9208    0.0000 C   0  0  0  0  0  0  0  0  0  0  0  0
    2.1125   -0.7167    0.0000 N   0  0  0  0  0  0  0  0  0  0  0  0
    3.8917    0.2958    0.0000 O   0  0  0  0  0  0  0  0  0  0  0  0
    2.1125    0.3708    0.0000 C   0  0  0  0  0  0  0  0  0  0  0  0
    3.0667    2.0500    0.0000 O   0  0  0  0  0  0  0  0  0  0  0  0
    2.1125   -1.7917    0.0000 C   0  0  0  0  0  0  0  0  0  0  0  0
    3.2000   -0.7167    0.0000 C   0  0  0  0  0  0  0  0  0  0  0  0
    1.0167   -0.7167    0.0000 C   0  0  0  0  0  0  0  0  0  0  0  0
   -3.0083   -0.8917    0.0000 C   0  0  0  0  0  0  0  0  0  0  0  0
   -3.0083    0.2083    0.0000 C   0  0  0  0  0  0  0  0  0  0  0  0
   -4.1458   -0.8917    0.0000 Cl  0  0  0  0  0  0  0  0  0  0  0  0
   -3.0083   -1.9500    0.0000 Cl  0  0  0  0  0  0  0  0  0  0  0  0
   -1.9083   -0.8917    0.0000 Cl  0  0  0  0  0  0  0  0  0  0  0  0
   -3.9750    0.7750    0.0000 O   0  0  0  0  0  0  0  0  0  0  0  0
   -2.0625    0.7750    0.0000 O   0  0  0  0  0  0  0  0  0  0  0  0
  2  4  1  0
  3  1  1  0
  4  1  1  0
  5  1  2  0
  6  2  1  0
  7  2  1  0
  8  2  1  0
 10  9  1  0
 11  9  1  0
 12  9  1  0
 13  9  1  0
 14 10  1  0
 15 10  1  0
M  CHG  2   2   1   3  -1
M  END
> <chembl_id>
CHEMBL3833335

> <chembl_pref_name>
CHLORAL BETAINE

$$$$

     RDKit          2D

 19 21  0  0  0  0  0  0  0  0999 V2000
   -3.4473    8.3973    0.0000 C   0  0  0  0  0  0  0  0  0  0  0  0
   -4.1618    7.9848    0.0000 C   0  0  0  0  0  0  0  0  0  0  0  0
   -4.1618    7.1598    0.0000 C   0  0  0  0  0  0  0  0  0  0  0  0
   -3.4473    6.7473    0.0000 C   0  0  0  0  0  0  0  0  0  0  0  0
   -2.7328    7.1598    0.0000 C   0  0  0  0  0  0  0  0  0  0  0  0
   -2.7328    7.9848    0.0000 C   0  0  0  0  0  0  0  0  0  0  0  0
   -4.8763    8.3973    0.0000 C   0  0  0  0  0  0  0  0  0  0  0  0
   -5.5908    8.8098    0.0000 N   0  0  0  0  0  0  0  0  0  0  0  0
   -2.0184    6.7473    0.0000 O   0  0  0  0  0  0  0  0  0  0  0  0
   -1.3039    7.1598    0.0000 C   0  0  0  0  0  0  0  0  0  0  0  0
   -0.5894    6.7473    0.0000 C   0  0  0  0  0  0  0  0  0  0  0  0
    0.1251    7.1598    0.0000 C   0  0  0  0  0  0  0  0  0  0  0  0
    0.1251    7.9848    0.0000 C   0  0  0  0  0  0  0  0  0  0  0  0
   -0.5894    8.3973    0.0000 C   0  0  0  0  0  0  0  0  0  0  0  0
   -1.3039    7.9848    0.0000 C   0  0  0  0  0  0  0  0  0  0  0  0
    0.9097    6.9049    0.0000 C   0  0  0  0  0  0  0  0  0  0  0  0
    1.3946    7.5723    0.0000 O   0  0  0  0  0  0  0  0  0  0  0  0
    0.9097    8.2397    0.0000 B   0  0  0  0  0  0  0  0  0  0  0  0
    1.1647    9.0243    0.0000 O   0  0  0  0  0  0  0  0  0  0  0  0
  1  2  2  0
  1  6  1  0
  2  3  1  0
  3  4  2  0
  4  5  1  0
  5  6  2  0
  2  7  1  0
  7  8  3  0
  5  9  1  0
  9 10  1  0
 10 11  2  0
 10 15  1  0
 11 12  1  0
 13 14  1  0
 14 15  2  0
 12 16  1  0
 12 13  2  0
 13 18  1  0
 16 17  1  0
 17 18  1  0
 18 19  1  0
M  END
> <chembl_id>
CHEMBL484785

> <chembl_pref_name>
CRISABOROLE

$$$$

     RDKit          2D

 12 12  0  0  0  0  0  0  0  0999 V2000
   14.0226  -19.1108    0.0000 C   0  0  0  0  0  0  0  0  0  0  0  0
   14.0226  -19.9079    0.0000 C   0  0  0  0  0  0  0  0  0  0  0  0
   14.7451  -20.3064    0.0000 C   0  0  0  0  0  0  0  0  0  0  0  0
   15.4720  -19.9079    0.0000 C   0  0  0  0  0  0  0  0  0  0  0  0
   15.4720  -19.1108    0.0000 C   0  0  0  0  0  0  0  0  0  0  0  0
   14.7451  -18.7076    0.0000 O   0  0  0  0  0  0  0  0  0  0  0  0
   16.1948  -18.7131    0.0000 O   0  0  0  0  0  0  0  0  0  0  0  0
   16.1938  -20.3074    0.0000 F   0  0  0  0  0  0  0  0  0  0  0  0
   14.7438  -21.1035    0.0000 O   0  0  0  0  0  0  0  0  0  0  0  0
   13.3002  -20.3064    0.0000 O   0  0  0  0  0  0  0  0  0  0  0  0
   13.2992  -18.7141    0.0000 C   0  0  0  0  0  0  0  0  0  0  0  0
   12.5779  -19.1142    0.0000 O   0  0  0  0  0  0  0  0  0  0  0  0
  5  6  1  0
  5  7  1  6
  1  2  1  0
  4  8  1  6
  1  6  1  0
  3  9  1  1
  2  3  1  0
  2 10  1  6
  3  4  1  0
  1 11  1  1
  4  5  1  0
 11 12  1  0
M  ISO  1   8  18
M  END
> <chembl_id>
CHEMBL1092067

> <chembl_pref_name>
FLUDEOXYGLUCOSE F 18

$$$$

     RDKit          2D

 18 18  0  0  0  0  0  0  0  0999 V2000
    6.8042   -5.3958    0.0000 C   0  0  0  0  0  0  0  0  0  0  0  0
    3.1250   -5.4083    0.0000 C   0  0  0  0  0  0  0  0  0  0  0  0
    6.1917   -5.0417    0.0000 C   0  0  0  0  0  0  0  0  0  0  0  0
    2.5125   -5.0542    0.0000 C   0  0  0  0  0  0  0  0  0  0  0  0
    3.1250   -6.1208    0.0000 C   0  0  0  0  0  0  0  0  0  0  0  0
    6.8083   -6.1042    0.0000 O   0  0  0  0  0  0  0  0  0  0  0  0
    1.9000   -5.4125    0.0000 C   0  0  0  0  0  0  0  0  0  0  0  0
    7.4167   -5.0375    0.0000 O   0  0  0  0  0  0  0  0  0  0  0  0
    2.5125   -6.4750    0.0000 C   0  0  0  0  0  0  0  0  0  0  0  0
    1.9000   -6.1208    0.0000 C   0  0  0  0  0  0  0  0  0  0  0  0
    3.7375   -5.0500    0.0000 O   0  0  0  0  0  0  0  0  0  0  0  0
    5.5792   -5.4000    0.0000 C   0  0  0  0  0  0  0  0  0  0  0  0
    6.5417   -4.4250    0.0000 C   0  0  0  0  0  0  0  0  0  0  0  0
    5.8292   -4.4250    0.0000 C   0  0  0  0  0  0  0  0  0  0  0  0
    2.5125   -4.3458    0.0000 C   0  0  0  0  0  0  0  0  0  0  0  0
    4.3500   -5.4042    0.0000 C   0  0  0  0  0  0  0  0  0  0  0  0
    2.5167   -7.1833    0.0000 C   0  0  0  0  0  0  0  0  0  0  0  0
    4.9625   -5.0458    0.0000 C   0  0  0  0  0  0  0  0  0  0  0  0
  2 11  1  0
  3  1  1  0
  4  2  2  0
  5  2  1  0
  6  1  2  0
  7  4  1  0
  8  1  1  0
  9  5  2  0
 10  7  2  0
 11 16  1  0
 12  3  1  0
 13  3  1  0
 14  3  1  0
 15  4  1  0
 16 18  1  0
 17  9  1  0
 18 12  1  0
  9 10  1  0
M  END
> <chembl_id>
CHEMBL457

> <chembl_pref_name>
GEMFIBROZIL

$$$$

     RDKit          2D

 12 12  0  0  1  0  0  0  0  0999 V2000
   -0.6083   -0.2375    0.0000 C   0  0  0  0  0  0  0  0  0  0  0  0
    0.0042    0.1125    0.0000 C   0  0  0  0  0  0  0  0  0  0  0  0
   -1.2083    0.1208    0.0000 C   0  0  0  0  0  0  0  0  0  0  0  0
    0.6292   -0.2500    0.0000 C   0  0  0  0  0  0  0  0  0  0  0  0
   -1.8333   -0.2292    0.0000 C   0  0  0  0  0  0  0  0  0  0  0  0
    0.6042   -0.9542    0.0000 N   0  0  0  0  0  0  0  0  0  0  0  0
    0.0125    0.8208    0.0000 O   0  0  0  0  0  0  0  0  0  0  0  0
   -2.4375    0.1333    0.0000 O   0  0  0  0  0  0  0  0  0  0  0  0
   -0.6083   -0.9417    0.0000 C   0  0  0  0  0  0  0  0  0  0  0  0
   -1.2250   -1.3000    0.0000 C   0  0  0  0  0  0  0  0  0  0  0  0
   -1.8333   -0.9375    0.0000 C   0  0  0  0  0  0  0  0  0  0  0  0
    1.2375    0.1083    0.0000 C   0  0  0  0  0  0  0  0  0  0  0  0
  2  1  1  0
  3  1  1  0
  4  2  1  0
  5  3  2  0
  4  6  1  6
  2  7  1  1
  8  5  1  0
  9  1  2  0
 10  9  1  0
 11 10  2  0
 12  4  1  0
 11  5  1  0
M  END
> <chembl_id>
CHEMBL1201319

> <chembl_pref_name>
METARAMINOL

$$$$

     RDKit          2D

 10  9  0  0  0  0  0  0  0  0999 V2000
    0.2292   -0.0292    0.0000 C   0  0  0  0  0  0  0  0  0  0  0  0
    0.2542    0.6792    0.0000 O   0  0  0  0  0  0  0  0  0  0  0  0
    2.0292   -1.1583    0.0000 O   0  0  0  0  0  0  0  0  0  0  0  0
    2.0542   -0.4458    0.0000 C   0  0  0  0  0  0  0  0  0  0  0  0
    0.8250   -0.4042    0.0000 C   0  0  0  0  0  0  0  0  0  0  0  0
    1.4542   -0.0708    0.0000 C   0  0  0  0  0  0  0  0  0  0  0  0
   -0.4000   -0.3542    0.0000 O   0  0  0  0  0  0  0  0  0  0  0  0
    3.2833   -0.4958    0.0000 N   0  0  0  0  0  0  0  0  0  0  0  0
    2.6875   -0.1167    0.0000 C   0  0  0  0  0  0  0  0  0  0  0  0
   -1.0000    0.0208    0.0000 C   0  0  0  0  0  0  0  0  0  0  0  0
  2  1  2  0
  3  4  2  0
  4  6  1  0
  5  1  1  0
  6  5  1  0
  7  1  1  0
  8  9  1  0
  9  4  1  0
 10  7  1  0
M  END
> <chembl_id>
CHEMBL1096562

> <chembl_pref_name>
METHYL AMINOLEVULINATE

$$$$

     RDKit          2D

 19 21  0  0  0  0  0  0  0  0999 V2000
    4.2417   -3.1417    0.0000 C   0  0  0  0  0  0  0  0  0  0  0  0
    4.1917   -2.0000    0.0000 C   0  0  0  0  0  0  0  0  0  0  0  0
    3.8000   -2.5917    0.0000 C   0  0  0  0  0  0  0  0  0  0  0  0
    4.9042   -2.9000    0.0000 C   0  0  0  0  0  0  0  0  0  0  0  0
    4.8792   -2.1917    0.0000 C   0  0  0  0  0  0  0  0  0  0  0  0
    3.0917   -2.6167    0.0000 C   0  0  0  0  0  0  0  0  0  0  0  0
    4.0542   -3.8292    0.0000 O   0  0  0  0  0  0  0  0  0  0  0  0
    3.9417   -1.3292    0.0000 O   0  0  0  0  0  0  0  0  0  0  0  0
    2.7667   -3.2500    0.0000 C   0  0  0  0  0  0  0  0  0  0  0  0
    2.7125   -2.0167    0.0000 C   0  0  0  0  0  0  0  0  0  0  0  0
    1.6750   -2.6792    0.0000 C   0  0  0  0  0  0  0  0  0  0  0  0
    2.0042   -2.0542    0.0000 C   0  0  0  0  0  0  0  0  0  0  0  0
    2.0542   -3.2792    0.0000 C   0  0  0  0  0  0  0  0  0  0  0  0
    5.4792   -1.8042    0.0000 C   0  0  0  0  0  0  0  0  0  0  0  0
    5.5375   -3.2250    0.0000 C   0  0  0  0  0  0  0  0  0  0  0  0
    0.9667   -2.7125    0.0000 O   0  0  0  0  0  0  0  0  0  0  0  0
    0.5875   -2.1167    0.0000 C   0  0  0  0  0  0  0  0  0  0  0  0
    6.1375   -2.8417    0.0000 C   0  0  0  0  0  0  0  0  0  0  0  0
    6.1042   -2.1375    0.0000 C   0  0  0  0  0  0  0  0  0  0  0  0
  2  3  1  0
  3  1  1  0
  4  1  1  0
  5  4  2  0
  6  3  1  0
  7  1  2  0
  8  2  2  0
  9  6  1  0
 10  6  2  0
 11 12  2  0
 12 10  1  0
 13  9  2  0
 14  5  1  0
 15  4  1  0
 16 11  1  0
 17 16  1  0
 18 15  2  0
 19 18  1  0
  5  2  1  0
 19 14  2  0
 11 13  1  0
M  END
> <chembl_id>
CHEMBL712

> <chembl_pref_name>
ANISINDIONE

$$$$

     RDKit          2D

 20 22  0  0  0  0  0  0  0  0999 V2000
   17.5036    0.6953    0.0000 C   0  0  0  0  0  0  0  0  0  0  0  0
   17.9308    1.4011    0.0000 C   0  0  0  0  0  0  0  0  0  0  0  0
   18.3293    0.6905    0.0000 C   0  0  0  0  0  0  0  0  0  0  0  0
   16.8697    0.2872    0.0000 C   0  0  0  0  0  0  0  0  0  0  0  0
   19.0496    0.2728    0.0000 N   0  0  0  0  0  0  0  0  0  0  0  0
   16.1685    0.7097    0.0000 C   0  0  0  0  0  0  0  0  0  0  0  0
   16.8504   -0.5388    0.0000 C   0  0  0  0  0  0  0  0  0  0  0  0
   16.1446   -0.9517    0.0000 C   0  0  0  0  0  0  0  0  0  0  0  0
   15.4387    0.3063    0.0000 C   0  0  0  0  0  0  0  0  0  0  0  0
   15.4387   -0.5293    0.0000 C   0  0  0  0  0  0  0  0  0  0  0  0
   16.8741    3.3179    0.0000 C   0  0  0  0  0  0  0  0  0  0  0  0
   17.3013    4.0237    0.0000 C   0  0  0  0  0  0  0  0  0  0  0  0
   17.7000    3.3132    0.0000 C   0  0  0  0  0  0  0  0  0  0  0  0
   16.2403    2.9098    0.0000 C   0  0  0  0  0  0  0  0  0  0  0  0
   18.4201    2.8954    0.0000 N   0  0  0  0  0  0  0  0  0  0  0  0
   15.5391    3.3323    0.0000 C   0  0  0  0  0  0  0  0  0  0  0  0
   16.2210    2.0839    0.0000 C   0  0  0  0  0  0  0  0  0  0  0  0
   15.5152    1.6709    0.0000 C   0  0  0  0  0  0  0  0  0  0  0  0
   14.8092    2.9289    0.0000 C   0  0  0  0  0  0  0  0  0  0  0  0
   14.8092    2.0934    0.0000 C   0  0  0  0  0  0  0  0  0  0  0  0
  2  1  1  0
  3  1  1  0
  1  4  1  1
  3  5  1  6
  6  4  2  0
  7  4  1  0
  8  7  2  0
  9  6  1  0
 10  9  2  0
  3  2  1  0
  8 10  1  0
 12 11  1  0
 13 11  1  0
 11 14  1  6
 13 15  1  1
 16 14  2  0
 17 14  1  0
 18 17  2  0
 19 16  1  0
 20 19  2  0
 13 12  1  0
 18 20  1  0
M  END
> <chembl_id>
CHEMBL3989843

> <chembl_pref_name>
TRANYLCYPROMINE

$$$$

     RDKit          2D

 16 17  0  0  0  0  0  0  0  0999 V2000
    0.4667    0.5625    0.0000 C   0  0  0  0  0  0  0  0  0  0  0  0
    1.7000    1.3208    0.0000 C   0  0  0  0  0  0  0  0  0  0  0  0
    0.4667   -0.8250    0.0000 C   0  0  0  0  0  0  0  0  0  0  0  0
    2.9667    0.6583    0.0000 N   0  0  0  0  0  0  0  0  0  0  0  0
    1.7167   -1.5625    0.0000 N   0  0  0  0  0  0  0  0  0  0  0  0
   -1.9833    0.5625    0.0000 C   0  0  0  0  0  0  0  0  0  0  0  0
   -0.7708    1.2625    0.0000 N   0  0  0  0  0  0  0  0  0  0  0  0
    2.9667   -0.8125    0.0000 C   0  0  0  0  0  0  0  0  0  0  0  0
   -1.9958   -0.7917    0.0000 N   0  0  0  0  0  0  0  0  0  0  0  0
   -3.3500    1.1333    0.0000 N   0  0  0  0  0  0  0  0  0  0  0  0
    1.7000    2.7708    0.0000 Cl  0  0  0  0  0  0  0  0  0  0  0  0
   -0.7125   -1.5417    0.0000 O   0  0  0  0  0  0  0  0  0  0  0  0
   -3.5208   -1.1542    0.0000 C   0  0  0  0  0  0  0  0  0  0  0  0
    4.2500   -1.5042    0.0000 C   0  0  0  0  0  0  0  0  0  0  0  0
   -4.2583    0.0125    0.0000 C   0  0  0  0  0  0  0  0  0  0  0  0
   -0.6833   -2.9250    0.0000 C   0  0  0  0  0  0  0  0  0  0  0  0
  2  1  1  0
  3  1  2  0
  4  2  2  0
  5  3  1  0
  6  7  1  0
  7  1  1  0
  8  5  2  0
  9  6  2  0
 10  6  1  0
 11  2  1  0
 12  3  1  0
 13  9  1  0
 14  8  1  0
 15 10  1  0
 16 12  1  0
  4  8  1  0
 15 13  1  0
M  END
> <chembl_id>
CHEMBL19236

> <chembl_pref_name>
MOXONIDINE

$$$$

     RDKit          2D

 18 19  0  0  0  0  0  0  0  0999 V2000
    2.8292   -1.3167    0.0000 C   0  0  0  0  0  0  0  0  0  0  0  0
    3.5125   -0.3792    0.0000 N   0  0  0  0  0  0  0  0  0  0  0  0
    2.8292   -0.6000    0.0000 C   0  0  0  0  0  0  0  0  0  0  0  0
    3.9292   -0.9542    0.0000 C   0  0  0  0  0  0  0  0  0  0  0  0
    2.2167   -1.6750    0.0000 C   0  0  0  0  0  0  0  0  0  0  0  0
    3.5125   -1.5375    0.0000 C   0  0  0  0  0  0  0  0  0  0  0  0
    2.2167   -2.3875    0.0000 O   0  0  0  0  0  0  0  0  0  0  0  0
   -0.2375   -2.3833    0.0000 N   0  0  0  0  0  0  0  0  0  0  0  0
    0.9958   -2.3958    0.0000 C   0  0  0  0  0  0  0  0  0  0  0  0
    1.6042   -2.7417    0.0000 C   0  0  0  0  0  0  0  0  0  0  0  0
    0.3750   -2.7458    0.0000 C   0  0  0  0  0  0  0  0  0  0  0  0
    0.9833   -1.6875    0.0000 O   0  0  0  0  0  0  0  0  0  0  0  0
    1.6042   -0.6000    0.0000 C   0  0  0  0  0  0  0  0  0  0  0  0
   -0.8542   -2.7375    0.0000 C   0  0  0  0  0  0  0  0  0  0  0  0
    2.2167   -0.2417    0.0000 C   0  0  0  0  0  0  0  0  0  0  0  0
    1.6042   -1.3167    0.0000 C   0  0  0  0  0  0  0  0  0  0  0  0
   -1.4708   -2.3750    0.0000 C   0  0  0  0  0  0  0  0  0  0  0  0
   -0.8625   -3.4458    0.0000 C   0  0  0  0  0  0  0  0  0  0  0  0
  2  3  1  0
  3  1  2  0
  4  6  2  0
  5  1  1  0
  6  1  1  0
  7  5  1  0
  8 11  1  0
  9 10  1  0
 10  7  1  0
 11  9  1  0
 12  9  1  0
 13 16  1  0
 14  8  1  0
 15  3  1  0
 16  5  2  0
 17 14  1  0
 18 14  1  0
  4  2  1  0
 13 15  2  0
M  END
> <chembl_id>
CHEMBL500

> <chembl_pref_name>
PINDOLOL

$$$$

     RDKit          2D

  4  3  0  0  0  0  0  0  0  0999 V2000
   -0.0833   -5.6750    0.0000 C   0  0  0  0  0  0  0  0  0  0  0  0
   -0.0833   -4.9667    0.0000 O   0  0  0  0  0  0  0  0  0  0  0  0
    0.5292   -6.0292    0.0000 N   0  0  0  0  0  0  0  0  0  0  0  0
   -0.6958   -6.0292    0.0000 N   0  0  0  0  0  0  0  0  0  0  0  0
  2  1  2  0
  3  1  1  0
  4  1  1  0
M  ISO  1   1  14
M  END
> <chembl_id>
CHEMBL2096635

> <chembl_pref_name>
UREA C 14

$$$$

     RDKit          2D

 18 19  0  0  0  0  0  0  0  0999 V2000
    6.5167   -4.5500    0.0000 C   0  0  0  0  0  0  0  0  0  0  0  0
    5.2792   -4.5417    0.0000 N   0  0  0  0  0  0  0  0  0  0  0  0
    5.8917   -4.8917    0.0000 C   0  0  0  0  0  0  0  0  0  0  0  0
    6.5125   -3.8375    0.0000 C   0  0  0  0  0  0  0  0  0  0  0  0
    4.6750   -4.8875    0.0000 C   0  0  0  0  0  0  0  0  0  0  0  0
    4.0542   -4.5417    0.0000 C   0  0  0  0  0  0  0  0  0  0  0  0
    7.1292   -3.4792    0.0000 O   0  0  0  0  0  0  0  0  0  0  0  0
    3.4417   -4.8917    0.0000 C   0  0  0  0  0  0  0  0  0  0  0  0
    5.8917   -3.4792    0.0000 O   0  0  0  0  0  0  0  0  0  0  0  0
    7.1292   -4.8917    0.0000 C   0  0  0  0  0  0  0  0  0  0  0  0
    4.6667   -5.5917    0.0000 C   0  0  0  0  0  0  0  0  0  0  0  0
    5.8917   -5.6042    0.0000 C   0  0  0  0  0  0  0  0  0  0  0  0
    4.0500   -5.9542    0.0000 C   0  0  0  0  0  0  0  0  0  0  0  0
    4.0625   -3.8292    0.0000 C   0  0  0  0  0  0  0  0  0  0  0  0
    3.4417   -5.5917    0.0000 C   0  0  0  0  0  0  0  0  0  0  0  0
    2.8250   -4.5292    0.0000 C   0  0  0  0  0  0  0  0  0  0  0  0
    7.1250   -5.6125    0.0000 C   0  0  0  0  0  0  0  0  0  0  0  0
    6.5042   -5.9625    0.0000 C   0  0  0  0  0  0  0  0  0  0  0  0
  2  3  1  0
  3  1  2  0
  4  1  1  0
  5  2  1  0
  6  5  2  0
  7  4  2  0
  8  6  1  0
  9  4  1  0
 10  1  1  0
 11  5  1  0
 12  3  1  0
 13 11  2  0
 14  6  1  0
 15 13  1  0
 16  8  1  0
 17 10  2  0
 18 17  1  0
 18 12  2  0
 15  8  2  0
M  END
> <chembl_id>
CHEMBL686

> <chembl_pref_name>
MEFENAMIC ACID

$$$$

     RDKit          2D

 21 23  0  0  1  0  0  0  0  0999 V2000
    2.1167  -15.2333    0.0000 C   0  0  0  0  0  0  0  0  0  0  0  0
    0.8917  -15.9500    0.0000 C   0  0  0  0  0  0  0  0  0  0  0  0
    0.8875  -15.2417    0.0000 O   0  0  0  0  0  0  0  0  0  0  0  0
    2.6875  -14.8167    0.0000 S   0  0  0  0  0  0  0  0  0  0  0  0
    1.5000  -14.8833    0.0000 C   0  0  0  0  0  0  0  0  0  0  0  0
    0.2833  -16.3083    0.0000 C   0  0  0  0  0  0  0  0  0  0  0  0
    2.3333  -15.9083    0.0000 C   0  0  0  0  0  0  0  0  0  0  0  0
    3.2625  -15.2333    0.0000 C   0  0  0  0  0  0  0  0  0  0  0  0
    3.0417  -15.9083    0.0000 C   0  0  0  0  0  0  0  0  0  0  0  0
    0.2833  -17.0167    0.0000 C   0  0  0  0  0  0  0  0  0  0  0  0
    1.4958  -14.1750    0.0000 C   0  0  0  0  0  0  0  0  0  0  0  0
    2.7208  -14.1708    0.0000 N   0  0  0  0  0  0  0  0  0  0  0  0
    1.5083  -16.3000    0.0000 C   0  0  0  0  0  0  0  0  0  0  0  0
    1.5125  -17.0125    0.0000 C   0  0  0  0  0  0  0  0  0  0  0  0
    2.1083  -13.8167    0.0000 C   0  0  0  0  0  0  0  0  0  0  0  0
   -0.3292  -15.9542    0.0000 C   0  0  0  0  0  0  0  0  0  0  0  0
    0.9000  -17.3708    0.0000 C   0  0  0  0  0  0  0  0  0  0  0  0
    3.3333  -13.8125    0.0000 C   0  0  0  0  0  0  0  0  0  0  0  0
   -0.3292  -17.3750    0.0000 C   0  0  0  0  0  0  0  0  0  0  0  0
   -0.9417  -16.3125    0.0000 C   0  0  0  0  0  0  0  0  0  0  0  0
   -0.9417  -17.0208    0.0000 C   0  0  0  0  0  0  0  0  0  0  0  0
  2  3  1  0
  3  5  1  0
  4  1  1  0
  5  1  1  0
  6  2  1  0
  7  1  2  0
  8  4  1  0
  9  7  1  0
 10  6  1  0
  5 11  1  1
 12 15  1  0
 13  2  2  0
 14 13  1  0
 15 11  1  0
 16  6  2  0
 17 10  1  0
 18 12  1  0
 19 10  2  0
 20 16  1  0
 21 20  2  0
  8  9  2  0
 14 17  2  0
 19 21  1  0
M  END
> <chembl_id>
CHEMBL1175

> <chembl_pref_name>
DULOXETINE

$$$$

     RDKit          2D

  1  0  0  0  0  0  0  0  0  0999 V2000
    0.7750   -2.8750    0.0000 Kr  0  0  0  0  0 15  0  0  0  0  0  0
M  END
> <chembl_id>
CHEMBL1233877

> <chembl_pref_name>
KRYPTON

$$$$

     RDKit          2D

 22 24  0  0  0  0  0  0  0  0999 V2000
    8.5603   -2.8735    0.0000 C   0  0  0  0  0  0  0  0  0  0  0  0
    9.6382   -3.6870    0.0000 C   0  0  0  0  0  0  0  0  0  0  0  0
    9.1187   -3.2503    0.0000 C   0  0  0  0  0  0  0  0  0  0  0  0
    8.1313   -3.2503    0.0000 C   0  0  0  0  0  0  0  0  0  0  0  0
    7.9873   -2.4257    0.0000 N   0  0  0  0  0  0  0  0  0  0  0  0
    9.5003   -2.8581    0.0000 C   0  0  0  0  0  0  0  0  0  0  0  0
    7.6036   -3.9744    0.0000 C   0  0  0  0  0  0  0  0  0  0  0  0
    8.2314   -3.5940    0.0000 C   0  0  0  0  0  0  0  0  0  0  0  0
    7.9000   -1.4332    0.0000 C   0  0  0  0  0  0  0  0  0  0  0  0
    7.3026   -3.2503    0.0000 H   0  0  0  0  0  0  0  0  0  0  0  0
    8.9624   -2.1560    0.0000 H   0  0  0  0  0  0  0  0  0  0  0  0
    9.8470   -4.4770    0.0000 O   0  0  0  0  0  0  0  0  0  0  0  0
   10.5583   -4.8873    0.0000 C   0  0  0  0  0  0  0  0  0  0  0  0
   11.2747   -4.4787    0.0000 C   0  0  0  0  0  0  0  0  0  0  0  0
   10.5564   -5.7125    0.0000 O   0  0  0  0  0  0  0  0  0  0  0  0
   11.9890   -4.8908    0.0000 C   0  0  0  0  0  0  0  0  0  0  0  0
   11.2767   -3.6533    0.0000 O   0  0  0  0  0  0  0  0  0  0  0  0
   11.9892   -5.7158    0.0000 C   0  0  0  0  0  0  0  0  0  0  0  0
   12.7038   -6.1281    0.0000 C   0  0  0  0  0  0  0  0  0  0  0  0
   13.4182   -5.7154    0.0000 C   0  0  0  0  0  0  0  0  0  0  0  0
   13.4180   -4.8903    0.0000 C   0  0  0  0  0  0  0  0  0  0  0  0
   12.7034   -4.4781    0.0000 C   0  0  0  0  0  0  0  0  0  0  0  0
  2  3  1  0
  4 10  1  1
  3  4  1  0
  1 11  1  6
  4  5  1  0
  2 12  1  6
  5  1  1  0
 12 13  1  0
  1  6  1  0
 13 14  1  0
  6  2  1  0
 13 15  2  0
  4  7  1  0
 14 16  1  0
  1  8  1  0
 14 17  1  0
  7  8  1  0
  5  9  1  0
 16 18  1  0
 16 22  2  0
 18 19  2  0
 19 20  1  0
 20 21  2  0
 21 22  1  0
M  END
> <chembl_id>
CHEMBL1618018

> <chembl_pref_name>
HOMATROPINE

$$$$

     RDKit          2D

 23 26  0  0  0  0  0  0  0  0999 V2000
    8.9610  -14.2763    0.0000 C   0  0  0  0  0  0  0  0  0  0  0  0
    9.7561  -14.0715    0.0000 C   0  0  0  0  0  0  0  0  0  0  0  0
    8.6232  -15.0326    0.0000 C   0  0  0  0  0  0  0  0  0  0  0  0
    9.0079  -15.7655    0.0000 O   0  0  0  0  0  0  0  0  0  0  0  0
   10.4145  -14.5618    0.0000 C   0  0  0  0  0  0  0  0  0  0  0  0
   11.8718  -15.3337    0.0000 C   0  0  0  0  0  0  0  0  0  0  0  0
   11.8411  -14.5088    0.0000 C   0  0  0  0  0  0  0  0  0  0  0  0
   11.1102  -14.1227    0.0000 C   0  0  0  0  0  0  0  0  0  0  0  0
   11.1714  -15.7725    0.0000 C   0  0  0  0  0  0  0  0  0  0  0  0
   10.4429  -15.3836    0.0000 C   0  0  0  0  0  0  0  0  0  0  0  0
    9.7513  -15.8203    0.0000 C   0  0  0  0  0  0  0  0  0  0  0  0
    9.7780  -16.6436    0.0000 O   0  0  0  0  0  0  0  0  0  0  0  0
   10.5025  -17.0284    0.0000 C   0  0  0  0  0  0  0  0  0  0  0  0
   11.2043  -16.5940    0.0000 C   0  0  0  0  0  0  0  0  0  0  0  0
    7.7986  -15.0587    0.0000 C   0  0  0  0  0  0  0  0  0  0  0  0
    9.6477  -15.2738    0.0000 O   0  0  0  0  0  0  0  0  0  0  0  0
    9.3989  -14.4902    0.0000 O   0  0  0  0  0  0  0  0  0  0  0  0
   10.4064  -13.7357    0.0000 H   0  0  0  0  0  0  0  0  0  0  0  0
   11.8824  -16.1817    0.0000 H   0  0  0  0  0  0  0  0  0  0  0  0
   10.5348  -17.8530    0.0000 O   0  0  0  0  0  0  0  0  0  0  0  0
    9.1585  -16.3974    0.0000 H   0  0  0  0  0  0  0  0  0  0  0  0
   11.0783  -13.2983    0.0000 C   0  0  0  0  0  0  0  0  0  0  0  0
   11.9339  -16.9781    0.0000 C   0  0  0  0  0  0  0  0  0  0  0  0
  2  5  1  0
  1  3  1  0
  9 14  1  0
 10 11  1  0
 11 12  1  0
 13 12  1  0
 13 14  1  0
  1  2  1  0
  3 15  1  1
  5  8  1  0
 10 16  1  6
  9  6  1  0
 16 17  1  0
  3 17  1  0
  6  7  1  0
  5 18  1  6
  7  8  1  0
  9 19  1  6
  9 10  1  0
 13 20  2  0
  3  4  1  0
 11 21  1  1
  4 11  1  0
  8 22  1  6
  5 10  1  0
 14 23  1  1
M  END
> <chembl_id>
CHEMBL567597

> <chembl_pref_name>
ARTEMISININ

$$$$

     RDKit          2D

 13 13  0  0  0  0  0  0  0  0999 V2000
   -2.2833   -0.2292    0.0000 N   0  0  0  0  0  0  0  0  0  0  0  0
    0.0250   -1.5542    0.0000 N   0  0  0  0  0  0  0  0  0  0  0  0
    0.0250    1.1125    0.0000 C   0  0  0  0  0  0  0  0  0  0  0  0
   -1.5083    1.1125    0.0000 C   0  0  0  0  0  0  0  0  0  0  0  0
    0.8000   -0.2292    0.0000 C   0  0  0  0  0  0  0  0  0  0  0  0
   -1.5083   -1.5542    0.0000 C   0  0  0  0  0  0  0  0  0  0  0  0
    2.3042   -0.2042    0.0000 O   0  0  0  0  0  0  0  0  0  0  0  0
   -2.0958    1.9958    0.0000 O   0  0  0  0  0  0  0  0  0  0  0  0
   -2.2833   -2.9000    0.0000 O   0  0  0  0  0  0  0  0  0  0  0  0
   -0.1625    2.3958    0.0000 C   0  0  0  0  0  0  0  0  0  0  0  0
    1.7542    1.3833    0.0000 C   0  0  0  0  0  0  0  0  0  0  0  0
    0.6292    3.2583    0.0000 C   0  0  0  0  0  0  0  0  0  0  0  0
    2.5542    2.0375    0.0000 C   0  0  0  0  0  0  0  0  0  0  0  0
  2  6  1  0
  3  4  1  0
  4  1  1  0
  5  2  1  0
  6  1  1  0
  7  5  2  0
  8  4  2  0
  9  6  2  0
 10  3  1  0
 11  3  1  0
 12 10  1  0
 13 11  1  0
  3  5  1  0
M  END
> <chembl_id>
CHEMBL444

> <chembl_pref_name>
BARBITAL

$$$$

     RDKit          2D

  9  8  0  0  0  0  0  0  0  0999 V2000
    5.8667   -2.8417    0.0000 Cl  0  0  0  0  0  0  0  0  0  0  0  0
    6.3958   -1.4042    0.0000 N   0  0  0  0  0  0  0  0  0  0  0  0
    5.8208   -0.9875    0.0000 N   0  0  0  0  0  0  0  0  0  0  0  0
    6.1792   -2.0792    0.0000 C   0  0  0  0  0  0  0  0  0  0  0  0
    5.4667   -2.0792    0.0000 C   0  0  0  0  0  0  0  0  0  0  0  0
    5.2500   -1.4083    0.0000 C   0  0  0  0  0  0  0  0  0  0  0  0
    6.7958   -2.4333    0.0000 C   0  0  0  0  0  0  0  0  0  0  0  0
    8.0292   -2.4208    0.0000 N   0  0  0  0  0  0  0  0  0  0  0  0
    7.4083   -2.0708    0.0000 C   0  0  0  0  0  0  0  0  0  0  0  0
  3  2  1  0
  4  2  2  0
  5  4  1  0
  6  3  1  0
  7  4  1  0
  8  9  1  0
  9  7  1  0
  6  5  2  0
M  END
> <chembl_id>
CHEMBL1200949

> <chembl_pref_name>
BETAZOLE HYDROCHLORIDE

$$$$

     RDKit          2D

 19 21  0  0  0  0  0  0  0  0999 V2000
   -3.2208    1.3458    0.0000 C   0  0  0  0  0  0  0  0  0  0  0  0
   -2.4208    0.7125    0.0000 O   0  0  0  0  0  0  0  0  0  0  0  0
   -2.8833    2.2708    0.0000 N   0  0  0  0  0  0  0  0  0  0  0  0
   -1.6458    1.3125    0.0000 C   0  0  0  0  0  0  0  0  0  0  0  0
    0.3167    0.5958    0.0000 N   0  0  0  0  0  0  0  0  0  0  0  0
   -4.2208    1.0583    0.0000 O   0  0  0  0  0  0  0  0  0  0  0  0
   -0.7958    1.9833    0.0000 C   0  0  0  0  0  0  0  0  0  0  0  0
   -1.4083    0.2833    0.0000 C   0  0  0  0  0  0  0  0  0  0  0  0
   -1.8708    2.2708    0.0000 C   0  0  0  0  0  0  0  0  0  0  0  0
   -0.4458   -0.0500    0.0000 C   0  0  0  0  0  0  0  0  0  0  0  0
    0.1417    1.6250    0.0000 C   0  0  0  0  0  0  0  0  0  0  0  0
    1.2792    0.2625    0.0000 C   0  0  0  0  0  0  0  0  0  0  0  0
    1.4542   -0.7167    0.0000 C   0  0  0  0  0  0  0  0  0  0  0  0
    2.4042   -1.0750    0.0000 C   0  0  0  0  0  0  0  0  0  0  0  0
    3.1667   -0.4042    0.0000 C   0  0  0  0  0  0  0  0  0  0  0  0
    2.5792   -2.0542    0.0000 C   0  0  0  0  0  0  0  0  0  0  0  0
    4.1375   -0.7417    0.0000 C   0  0  0  0  0  0  0  0  0  0  0  0
    3.5542   -2.3792    0.0000 C   0  0  0  0  0  0  0  0  0  0  0  0
    4.3417   -1.7375    0.0000 C   0  0  0  0  0  0  0  0  0  0  0  0
  2  1  1  0
  3  1  1  0
  4  2  1  0
  5 10  1  0
  6  1  2  0
  7  4  1  0
  8  4  1  0
  9  3  1  0
 10  8  1  0
 11  7  1  0
 12  5  1  0
 13 12  1  0
 14 13  1  0
 15 14  1  0
 16 14  2  0
 17 15  2  0
 18 16  1  0
 19 17  1  0
  4  9  1  0
 11  5  1  0
 18 19  2  0
M  END
> <chembl_id>
CHEMBL576127

> <chembl_pref_name>
FENSPIRIDE

$$$$

     RDKit          2D

 11 10  0  0  0  0  0  0  0  0999 V2000
    1.6558   -3.1234    0.0000 S   0  0  0  0  0  0  0  0  0  0  0  0
    2.3728   -2.7213    0.0000 O   0  0  0  0  0  0  0  0  0  0  0  0
    2.0579   -3.8307    0.0000 O   0  0  0  0  0  0  0  0  0  0  0  0
    1.2392   -3.8307    0.0000 O   0  0  0  0  0  0  0  0  0  0  0  0
   -1.9193   -2.6826    0.0000 C   0  0  0  0  0  0  0  0  0  0  0  0
   -1.9144   -1.8543    0.0000 O   0  0  0  0  0  0  0  0  0  0  0  0
    0.9437   -2.7019    0.0000 C   0  0  0  0  0  0  0  0  0  0  0  0
   -1.2072   -3.0992    0.0000 N   0  0  0  0  0  0  0  0  0  0  0  0
    0.2219   -3.1088    0.0000 C   0  0  0  0  0  0  0  0  0  0  0  0
   -0.4902   -2.6923    0.0000 C   0  0  0  0  0  0  0  0  0  0  0  0
   -2.6362   -3.0895    0.0000 C   0  0  0  0  0  0  0  0  0  0  0  0
  2  1  1  0
  3  1  2  0
  4  1  2  0
  5  8  1  0
  6  5  2  0
  7  1  1  0
  8 10  1  0
  9  7  1  0
 10  9  1  0
 11  5  1  0
M  END
> <chembl_id>
CHEMBL1201293

> <chembl_pref_name>
ACAMPROSATE

$$$$

     RDKit          2D

 16 16  0  0  0  0  0  0  0  0999 V2000
    1.2708   -5.5750    0.0000 C   0  0  0  0  0  0  0  0  0  0  0  0
    1.8792   -5.2125    0.0000 P   0  0  0  0  0  0  0  0  0  0  0  0
    1.6167   -6.1875    0.0000 P   0  0  0  0  0  0  0  0  0  0  0  0
    0.6542   -5.2292    0.0000 C   0  0  0  0  0  0  0  0  0  0  0  0
    0.0417   -5.5875    0.0000 N   0  0  0  0  0  0  0  0  0  0  0  0
   -1.1042   -5.5875    0.0000 N   0  0  0  0  0  0  0  0  0  0  0  0
   -0.5333   -5.1667    0.0000 C   0  0  0  0  0  0  0  0  0  0  0  0
    2.2292   -5.8292    0.0000 O   0  0  0  0  0  0  0  0  0  0  0  0
    1.5167   -4.5917    0.0000 O   0  0  0  0  0  0  0  0  0  0  0  0
    0.9125   -6.1875    0.0000 O   0  0  0  0  0  0  0  0  0  0  0  0
   -0.8875   -6.2625    0.0000 C   0  0  0  0  0  0  0  0  0  0  0  0
   -0.1750   -6.2625    0.0000 C   0  0  0  0  0  0  0  0  0  0  0  0
    2.2292   -6.5417    0.0000 O   0  0  0  0  0  0  0  0  0  0  0  0
    2.4958   -5.5583    0.0000 O   0  0  0  0  0  0  0  0  0  0  0  0
    2.2292   -4.5917    0.0000 O   0  0  0  0  0  0  0  0  0  0  0  0
    1.2625   -6.7958    0.0000 O   0  0  0  0  0  0  0  0  0  0  0  0
  2  1  1  0
  3  1  1  0
  4  1  1  0
  5  4  1  0
  6  7  2  0
  7  5  1  0
  8  3  2  0
  9  2  2  0
 10  1  1  0
 11 12  2  0
 12  5  1  0
 13  3  1  0
 14  2  1  0
 15  2  1  0
 16  3  1  0
 11  6  1  0
M  END
> <chembl_id>
CHEMBL924

> <chembl_pref_name>
ZOLEDRONIC ACID

$$$$

     RDKit          2D

 17 19  0  0  0  0  0  0  0  0999 V2000
   -0.4792   -3.0583    0.0000 C   0  0  0  0  0  0  0  0  0  0  0  0
    1.3833   -3.3958    0.0000 C   0  0  0  0  0  0  0  0  0  0  0  0
   -1.0917   -3.4000    0.0000 C   0  0  0  0  0  0  0  0  0  0  0  0
    0.1292   -3.4000    0.0000 C   0  0  0  0  0  0  0  0  0  0  0  0
    0.7583   -3.0583    0.0000 N   0  0  0  0  0  0  0  0  0  0  0  0
    1.6167   -4.0958    0.0000 N   0  0  0  0  0  0  0  0  0  0  0  0
    1.9708   -3.0292    0.0000 N   0  0  0  0  0  0  0  0  0  0  0  0
   -1.7083   -3.0583    0.0000 N   0  0  0  0  0  0  0  0  0  0  0  0
   -1.0917   -4.1250    0.0000 C   0  0  0  0  0  0  0  0  0  0  0  0
   -1.7083   -4.4750    0.0000 N   0  0  0  0  0  0  0  0  0  0  0  0
    0.1292   -4.1250    0.0000 C   0  0  0  0  0  0  0  0  0  0  0  0
   -0.4792   -4.4750    0.0000 C   0  0  0  0  0  0  0  0  0  0  0  0
   -0.4792   -2.3375    0.0000 Br  0  0  0  0  0  0  0  0  0  0  0  0
    2.3042   -4.0958    0.0000 C   0  0  0  0  0  0  0  0  0  0  0  0
    2.5333   -3.3958    0.0000 C   0  0  0  0  0  0  0  0  0  0  0  0
   -2.3417   -3.4000    0.0000 C   0  0  0  0  0  0  0  0  0  0  0  0
   -2.3417   -4.1250    0.0000 C   0  0  0  0  0  0  0  0  0  0  0  0
  2  5  1  0
  3  1  1  0
  4  1  2  0
  5  4  1  0
  6  2  2  0
  7  2  1  0
  8  3  1  0
  9  3  2  0
 10  9  1  0
 11  4  1  0
 12 11  2  0
 13  1  1  0
 14  6  1  0
 15  7  1  0
 16  8  2  0
 17 10  2  0
 12  9  1  0
 17 16  1  0
 14 15  1  0
M  END
> <chembl_id>
CHEMBL844

> <chembl_pref_name>
BRIMONIDINE

$$$$

     RDKit          2D

 15 16  0  0  1  0  0  0  0  0999 V2000
   10.0272   -1.2655    0.0000 C   0  0  0  0  0  0  0  0  0  0  0  0
    9.3115   -0.8539    0.0000 N   0  0  0  0  0  0  0  0  0  0  0  0
    9.3109   -0.0295    0.0000 C   0  0  0  0  0  0  0  0  0  0  0  0
   10.0259    0.3833    0.0000 C   0  0  0  0  0  0  0  0  0  0  0  0
   10.7416   -0.0283    0.0000 C   0  0  0  0  0  0  0  0  0  0  0  0
   10.7381   -0.8527    0.0000 N   0  0  0  0  0  0  0  0  0  0  0  0
   10.0279   -2.0899    0.0000 O   0  0  0  0  0  0  0  0  0  0  0  0
   12.2073   -0.9264    0.0000 O   0  0  0  0  0  0  0  0  0  0  0  0
   12.7605   -1.5420    0.0000 C   0  0  0  0  0  0  0  0  0  0  0  0
   12.3489   -2.2535    0.0000 S   0  0  0  0  0  0  0  0  0  0  0  0
   11.5391   -2.0819    0.0000 C   0  0  0  0  0  0  0  0  0  0  0  0
   11.4538   -1.2644    0.0000 C   0  0  0  0  0  0  0  0  0  0  0  0
   13.5780   -1.4523    0.0000 C   0  0  0  0  0  0  0  0  0  0  0  0
   14.0629   -2.1212    0.0000 O   0  0  0  0  0  0  0  0  0  0  0  0
    8.5994    0.3822    0.0000 N   0  0  0  0  0  0  0  0  0  0  0  0
  1  2  1  0
  2  3  2  0
  3  4  1  0
  4  5  2  0
  5  6  1  0
  1  6  1  0
  1  7  2  0
  8  9  1  0
  9 10  1  0
 10 11  1  0
 11 12  1  0
  8 12  1  0
 13 14  1  0
  9 13  1  1
 12  6  1  1
  3 15  1  0
M  END
> <chembl_id>
CHEMBL141

> <chembl_pref_name>
LAMIVUDINE

$$$$

     RDKit          2D

 19 21  0  0  1  0  0  0  0  0999 V2000
    0.5375  -18.0667    0.0000 N   0  0  0  0  0  0  0  0  0  0  0  0
    0.5417  -18.8875    0.0000 C   0  0  0  0  0  0  0  0  0  0  0  0
   -0.1333  -17.8417    0.0000 C   0  0  0  0  0  0  0  0  0  0  0  0
   -0.1250  -17.1292    0.0000 C   0  0  0  0  0  0  0  0  0  0  0  0
    0.5417  -16.9167    0.0000 N   0  0  0  0  0  0  0  0  0  0  0  0
    0.3250  -19.5500    0.0000 C   0  0  0  0  0  0  0  0  0  0  0  0
    0.9542  -17.4917    0.0000 C   0  0  0  0  0  0  0  0  0  0  0  0
   -0.0208  -18.4750    0.0000 O   0  0  0  0  0  0  0  0  0  0  0  0
   -0.3958  -19.5417    0.0000 C   0  0  0  0  0  0  0  0  0  0  0  0
   -0.6000  -18.8792    0.0000 C   0  0  0  0  0  0  0  0  0  0  0  0
   -0.7375  -16.7792    0.0000 C   0  0  0  0  0  0  0  0  0  0  0  0
   -0.7458  -18.1917    0.0000 N   0  0  0  0  0  0  0  0  0  0  0  0
   -1.3500  -17.1167    0.0000 N   0  0  0  0  0  0  0  0  0  0  0  0
   -1.3583  -17.8292    0.0000 C   0  0  0  0  0  0  0  0  0  0  0  0
    0.7250  -20.1292    0.0000 O   0  0  0  0  0  0  0  0  0  0  0  0
   -0.7500  -16.0667    0.0000 N   0  0  0  0  0  0  0  0  0  0  0  0
   -0.8083  -20.1125    0.0000 O   0  0  0  0  0  0  0  0  0  0  0  0
   -1.2083  -18.5292    0.0000 C   0  0  0  0  0  0  0  0  0  0  0  0
   -1.8333  -18.8875    0.0000 O   0  0  0  0  0  0  0  0  0  0  0  0
  2  1  1  1
  3  1  1  0
  4  3  2  0
  5  7  2  0
  6  2  1  0
  7  1  1  0
  8  2  1  0
  9  6  1  0
 10  8  1  0
 11  4  1  0
 12  3  1  0
 13 14  1  0
 14 12  2  0
  6 15  1  6
 16 11  1  0
  9 17  1  6
 10 18  1  1
 19 18  1  0
  5  4  1  0
 10  9  1  0
 11 13  2  0
M  END
> <chembl_id>
CHEMBL477

> <chembl_pref_name>
ADENOSINE

$$$$

     RDKit          2D

  7  4  0  0  0  0  0  0  0  0999 V2000
    3.5542   -8.1417    0.0000 Na  0  0  0  0  0 15  0  0  0  0  0  0
    4.9792   -7.8167    0.0000 S   0  0  0  0  0  0  0  0  0  0  0  0
    4.3667   -8.1750    0.0000 O   0  0  0  0  0  0  0  0  0  0  0  0
    5.5917   -8.1750    0.0000 O   0  0  0  0  0  0  0  0  0  0  0  0
    5.3292   -7.2000    0.0000 O   0  0  0  0  0  0  0  0  0  0  0  0
    4.6167   -7.2000    0.0000 O   0  0  0  0  0  0  0  0  0  0  0  0
    6.2042   -8.2375    0.0000 Na  0  0  0  0  0 15  0  0  0  0  0  0
  3  2  1  0
  4  2  1  0
  5  2  2  0
  6  2  2  0
M  CHG  4   1   1   3  -1   4  -1   7   1
M  END
> <chembl_id>
CHEMBL233406

> <chembl_pref_name>
SODIUM SULFATE

$$$$

     RDKit          2D

 19 21  0  0  0  0  0  0  0  0999 V2000
    6.2375   -4.3125    0.0000 C   0  0  0  0  0  0  0  0  0  0  0  0
    6.2375   -5.0167    0.0000 N   0  0  0  0  0  0  0  0  0  0  0  0
    5.0125   -4.3125    0.0000 C   0  0  0  0  0  0  0  0  0  0  0  0
    5.6167   -3.9542    0.0000 C   0  0  0  0  0  0  0  0  0  0  0  0
    5.6167   -5.3750    0.0000 N   0  0  0  0  0  0  0  0  0  0  0  0
    5.0125   -5.0167    0.0000 C   0  0  0  0  0  0  0  0  0  0  0  0
    4.3917   -5.3750    0.0000 C   0  0  0  0  0  0  0  0  0  0  0  0
    4.3917   -3.9542    0.0000 C   0  0  0  0  0  0  0  0  0  0  0  0
    6.8542   -3.9542    0.0000 C   0  0  0  0  0  0  0  0  0  0  0  0
    3.7792   -5.0167    0.0000 C   0  0  0  0  0  0  0  0  0  0  0  0
    3.7792   -4.3125    0.0000 C   0  0  0  0  0  0  0  0  0  0  0  0
    3.1000   -5.2417    0.0000 O   0  0  0  0  0  0  0  0  0  0  0  0
    3.1000   -4.1000    0.0000 O   0  0  0  0  0  0  0  0  0  0  0  0
    5.6167   -3.2417    0.0000 O   0  0  0  0  0  0  0  0  0  0  0  0
    2.6792   -4.6667    0.0000 C   0  0  0  0  0  0  0  0  0  0  0  0
    6.8625   -3.2500    0.0000 O   0  0  0  0  0  0  0  0  0  0  0  0
    7.4667   -4.3167    0.0000 O   0  0  0  0  0  0  0  0  0  0  0  0
    5.6167   -6.0875    0.0000 C   0  0  0  0  0  0  0  0  0  0  0  0
    6.2375   -6.4417    0.0000 C   0  0  0  0  0  0  0  0  0  0  0  0
  2  1  2  0
  3  4  1  0
  4  1  1  0
  5  2  1  0
  6  3  1  0
  7  6  2  0
  8  3  2  0
  9  1  1  0
 10 11  2  0
 11  8  1  0
 12 10  1  0
 13 11  1  0
 14  4  2  0
 15 13  1  0
 16  9  2  0
 17  9  1  0
 18  5  1  0
 19 18  1  0
  6  5  1  0
  7 10  1  0
 15 12  1  0
M  END
> <chembl_id>
CHEMBL1208

> <chembl_pref_name>
CINOXACIN

$$$$

     RDKit          2D

 13  9  0  0  0  0  0  0  0  0999 V2000
    4.4494   -2.8582    0.0000 O   0  0  0  0  0  0  0  0  0  0  0  0
    0.9767   -0.9836    0.0000 C   0  0  0  0  0  0  0  0  0  0  0  0
    0.2472   -1.3906    0.0000 O   0  0  0  0  0  0  0  0  0  0  0  0
    1.6795   -1.3858    0.0000 C   0  0  0  0  0  0  0  0  0  0  0  0
    2.4003   -0.9844    0.0000 C   0  0  0  0  0  0  0  0  0  0  0  0
    3.0901   -1.3906    0.0000 O   0  0  0  0  0  0  0  0  0  0  0  0
    3.8087   -0.9734    0.0000 P   0  0  0  0  0  0  0  0  0  0  0  0
    3.9478   -1.7922    0.0000 O   0  0  0  0  0  0  0  0  0  0  0  0
    4.6624   -1.3868    0.0000 O   0  0  0  0  0  0  0  0  0  0  0  0
    3.8010   -0.1545    0.0000 O   0  0  0  0  0  0  0  0  0  0  0  0
    1.6795   -2.2078    0.0000 O   0  0  0  0  0  0  0  0  0  0  0  0
    1.2329   -2.9062    0.0000 Na  0  0  0  0  0 15  0  0  0  0  0  0
   -0.6751   -1.2623    0.0000 Na  0  0  0  0  0 15  0  0  0  0  0  0
  2  3  1  0
  2  4  1  0
  4  5  1  0
  5  6  1  0
  7  8  1  0
  7  9  1  0
  7  6  1  0
 10  7  2  0
  4 11  1  0
M  CHG  4   3  -1  11  -1  12   1  13   1
M  END
> <chembl_id>
CHEMBL3039567

> <chembl_pref_name>
SODIUM GLYCEROPHOSPHATE

$$$$

     RDKit          2D

 13 13  0  0  0  0  0  0  0  0999 V2000
    0.1167   -0.5000    0.0000 C   0  0  0  0  0  0  0  0  0  0  0  0
   -1.1333   -1.2000    0.0000 C   0  0  0  0  0  0  0  0  0  0  0  0
    1.3375   -1.2167    0.0000 C   0  0  0  0  0  0  0  0  0  0  0  0
   -2.3833   -0.4917    0.0000 C   0  0  0  0  0  0  0  0  0  0  0  0
    2.5917    0.8750    0.0000 N   0  0  0  0  0  0  0  0  0  0  0  0
    1.3167   -2.6625    0.0000 O   0  0  0  0  0  0  0  0  0  0  0  0
   -3.6458   -1.2125    0.0000 O   0  0  0  0  0  0  0  0  0  0  0  0
    0.1167    0.9083    0.0000 C   0  0  0  0  0  0  0  0  0  0  0  0
   -1.1208    1.6375    0.0000 C   0  0  0  0  0  0  0  0  0  0  0  0
    2.5750   -0.5167    0.0000 C   0  0  0  0  0  0  0  0  0  0  0  0
   -2.3750    0.9375    0.0000 C   0  0  0  0  0  0  0  0  0  0  0  0
    3.8792    1.5833    0.0000 C   0  0  0  0  0  0  0  0  0  0  0  0
    3.9125    3.0208    0.0000 C   0  0  0  0  0  0  0  0  0  0  0  0
  2  1  2  0
  3  1  1  0
  4  2  1  0
  5 10  1  0
  6  3  1  0
  7  4  1  0
  8  1  1  0
  9  8  2  0
 10  3  1  0
 11  9  1  0
 12  5  1  0
 13 12  1  0
  4 11  2  0
M  END
> <chembl_id>
CHEMBL86882

> <chembl_pref_name>
ETILEFRINE

$$$$

     RDKit          2D

 13 14  0  0  0  0  0  0  0  0999 V2000
   -0.2875    0.8833    0.0000 N   0  0  0  0  0  0  0  0  0  0  0  0
   -0.7333   -0.4792    0.0000 C   0  0  0  0  0  0  0  0  0  0  0  0
   -1.4458    1.7208    0.0000 N   0  0  0  0  0  0  0  0  0  0  0  0
   -2.1625   -0.4792    0.0000 C   0  0  0  0  0  0  0  0  0  0  0  0
   -2.6000    0.8833    0.0000 C   0  0  0  0  0  0  0  0  0  0  0  0
    1.1375    0.8833    0.0000 C   0  0  0  0  0  0  0  0  0  0  0  0
   -0.1458   -1.8625    0.0000 O   0  0  0  0  0  0  0  0  0  0  0  0
   -3.9833    1.2625    0.0000 C   0  0  0  0  0  0  0  0  0  0  0  0
    1.8500   -0.3417    0.0000 C   0  0  0  0  0  0  0  0  0  0  0  0
    1.8375    2.1208    0.0000 C   0  0  0  0  0  0  0  0  0  0  0  0
    3.2542    2.1333    0.0000 C   0  0  0  0  0  0  0  0  0  0  0  0
    3.2750   -0.3417    0.0000 C   0  0  0  0  0  0  0  0  0  0  0  0
    3.9792    0.8958    0.0000 C   0  0  0  0  0  0  0  0  0  0  0  0
  2  1  1  0
  3  1  1  0
  4  2  1  0
  5  3  2  0
  6  1  1  0
  7  2  2  0
  8  5  1  0
  9  6  2  0
 10  6  1  0
 11 10  2  0
 12  9  1  0
 13 11  1  0
  5  4  1  0
 12 13  2  0
M  END
> <chembl_id>
CHEMBL290916

> <chembl_pref_name>
EDARAVONE

$$$$

     RDKit          2D

  7  7  0  0  0  0  0  0  0  0999 V2000
   -0.0083    0.6083    0.0000 C   0  0  0  0  0  0  0  0  0  0  0  0
   -0.0083    2.0833    0.0000 O   0  0  0  0  0  0  0  0  0  0  0  0
    1.2375   -0.1167    0.0000 C   0  0  0  0  0  0  0  0  0  0  0  0
   -1.2458   -0.0667    0.0000 C   0  0  0  0  0  0  0  0  0  0  0  0
   -1.2458   -1.5000    0.0000 C   0  0  0  0  0  0  0  0  0  0  0  0
    1.2375   -1.5000    0.0000 C   0  0  0  0  0  0  0  0  0  0  0  0
   -0.0083   -2.2417    0.0000 C   0  0  0  0  0  0  0  0  0  0  0  0
  2  1  1  0
  3  1  1  0
  4  1  2  0
  5  4  1  0
  6  3  2  0
  7  5  2  0
  6  7  1  0
M  END
> <chembl_id>
CHEMBL14060

> <chembl_pref_name>
PHENOL

$$$$

     RDKit          2D

 16 17  0  0  0  0  0  0  0  0999 V2000
    2.9125    2.6333    0.0000 C   0  0  0  0  0  0  0  0  0  0  0  0
   -0.6833   -0.8167    0.0000 C   0  0  0  0  0  0  0  0  0  0  0  0
    1.6792    3.3833    0.0000 O   0  0  0  0  0  0  0  0  0  0  0  0
   -1.8708   -1.5042    0.0000 C   0  0  0  0  0  0  0  0  0  0  0  0
    0.5042   -1.5167    0.0000 C   0  0  0  0  0  0  0  0  0  0  0  0
   -0.6875    0.5583    0.0000 C   0  0  0  0  0  0  0  0  0  0  0  0
    2.9125    1.2500    0.0000 C   0  0  0  0  0  0  0  0  0  0  0  0
    1.7167    0.5708    0.0000 C   0  0  0  0  0  0  0  0  0  0  0  0
    4.1250    3.2083    0.0000 O   0  0  0  0  0  0  0  0  0  0  0  0
    0.5042    1.2500    0.0000 C   0  0  0  0  0  0  0  0  0  0  0  0
    1.7125   -0.8167    0.0000 C   0  0  0  0  0  0  0  0  0  0  0  0
   -3.0750   -0.8167    0.0000 C   0  0  0  0  0  0  0  0  0  0  0  0
   -1.8708   -2.8917    0.0000 C   0  0  0  0  0  0  0  0  0  0  0  0
   -4.2708   -1.5042    0.0000 C   0  0  0  0  0  0  0  0  0  0  0  0
   -3.0625   -3.5875    0.0000 C   0  0  0  0  0  0  0  0  0  0  0  0
   -4.2833   -2.9042    0.0000 C   0  0  0  0  0  0  0  0  0  0  0  0
  2  5  2  0
  3  1  2  0
  4  2  1  0
  5 11  1  0
  6 10  2  0
  7  1  1  0
  8  7  1  0
  9  1  1  0
 10  8  1  0
 11  8  2  0
 12  4  2  0
 13  4  1  0
 14 12  1  0
 15 13  2  0
 16 15  1  0
  6  2  1  0
 14 16  2  0
M  END
> <chembl_id>
CHEMBL413965

> <chembl_pref_name>
FELBINAC

$$$$

     RDKit          2D

 17 18  0  0  0  0  0  0  0  0999 V2000
   -2.6000   -0.0625    0.0000 C   0  0  0  0  0  0  0  0  0  0  0  0
    1.3792   -0.0625    0.0000 C   0  0  0  0  0  0  0  0  0  0  0  0
    0.3667    0.5208    0.0000 C   0  0  0  0  0  0  0  0  0  0  0  0
   -2.6000   -1.2250    0.0000 C   0  0  0  0  0  0  0  0  0  0  0  0
   -3.7083    0.2708    0.0000 O   0  0  0  0  0  0  0  0  0  0  0  0
   -3.7083   -1.5667    0.0000 O   0  0  0  0  0  0  0  0  0  0  0  0
   -4.3458   -0.6417    0.0000 C   0  0  0  0  0  0  0  0  0  0  0  0
    3.3667   -0.0292    0.0000 C   0  0  0  0  0  0  0  0  0  0  0  0
   -1.6208    0.4833    0.0000 C   0  0  0  0  0  0  0  0  0  0  0  0
    2.3917    0.5208    0.0000 C   0  0  0  0  0  0  0  0  0  0  0  0
   -0.6375   -0.0625    0.0000 C   0  0  0  0  0  0  0  0  0  0  0  0
   -1.6208   -1.8167    0.0000 C   0  0  0  0  0  0  0  0  0  0  0  0
   -0.6375   -1.2250    0.0000 C   0  0  0  0  0  0  0  0  0  0  0  0
    2.3917    1.6833    0.0000 O   0  0  0  0  0  0  0  0  0  0  0  0
    4.3417    0.5333    0.0000 C   0  0  0  0  0  0  0  0  0  0  0  0
    3.3792   -1.1625    0.0000 C   0  0  0  0  0  0  0  0  0  0  0  0
    4.1625   -0.8292    0.0000 C   0  0  0  0  0  0  0  0  0  0  0  0
  2  3  2  0
  3 11  1  0
  4  1  1  0
  5  1  1  0
  6  4  1  0
  7  5  1  0
  8 10  1  0
  9  1  2  0
 10  2  1  0
 11  9  1  0
 12  4  2  0
 13 11  2  0
 14 10  1  0
 15  8  1  0
 16  8  1  0
 17  8  1  0
  6  7  1  0
 12 13  1  0
M  END
> <chembl_id>
CHEMBL1983350

> <chembl_pref_name>
STIRIPENTOL

$$$$

     RDKit          2D

 20 22  0  0  0  0  0  0  0  0999 V2000
   -0.0250    0.0125    0.0000 N   0  0  0  0  0  0  0  0  0  0  0  0
   -0.0208    1.2000    0.0000 C   0  0  0  0  0  0  0  0  0  0  0  0
   -0.0458   -2.4000    0.0000 N   0  0  0  0  0  0  0  0  0  0  0  0
    1.0167   -0.6167    0.0000 C   0  0  0  0  0  0  0  0  0  0  0  0
   -1.0625   -0.5792    0.0000 C   0  0  0  0  0  0  0  0  0  0  0  0
   -1.0375    1.8083    0.0000 C   0  0  0  0  0  0  0  0  0  0  0  0
    1.0167    1.7833    0.0000 C   0  0  0  0  0  0  0  0  0  0  0  0
    1.0042   -1.8250    0.0000 C   0  0  0  0  0  0  0  0  0  0  0  0
   -1.0708   -1.7792    0.0000 C   0  0  0  0  0  0  0  0  0  0  0  0
   -0.0750   -3.5917    0.0000 C   0  0  0  0  0  0  0  0  0  0  0  0
    2.0375    1.1833    0.0000 C   0  0  0  0  0  0  0  0  0  0  0  0
    1.0167    2.9708    0.0000 C   0  0  0  0  0  0  0  0  0  0  0  0
   -1.0208    2.9958    0.0000 C   0  0  0  0  0  0  0  0  0  0  0  0
   -2.0625    1.2208    0.0000 C   0  0  0  0  0  0  0  0  0  0  0  0
   -2.0458    3.5958    0.0000 C   0  0  0  0  0  0  0  0  0  0  0  0
   -3.0833    1.8208    0.0000 C   0  0  0  0  0  0  0  0  0  0  0  0
    3.0667    1.7625    0.0000 C   0  0  0  0  0  0  0  0  0  0  0  0
    2.0542    3.5583    0.0000 C   0  0  0  0  0  0  0  0  0  0  0  0
   -3.0833    3.0083    0.0000 C   0  0  0  0  0  0  0  0  0  0  0  0
    3.0792    2.9583    0.0000 C   0  0  0  0  0  0  0  0  0  0  0  0
  2  1  1  0
  3  9  1  0
  4  1  1  0
  5  1  1  0
  6  2  1  0
  7  2  1  0
  8  4  1  0
  9  5  1  0
 10  3  1  0
 11  7  2  0
 12  7  1  0
 13  6  2  0
 14  6  1  0
 15 13  1  0
 16 14  2  0
 17 11  1  0
 18 12  2  0
 19 16  1  0
 20 18  1  0
  8  3  1  0
 17 20  2  0
 15 19  2  0
M  END
> <chembl_id>
CHEMBL648

> <chembl_pref_name>
CYCLIZINE

$$$$

     RDKit          2D

 17 17  0  0  0  0  0  0  0  0999 V2000
    5.7417   -8.0292    0.0000 Cl  0  0  0  0  0  0  0  0  0  0  0  0
    3.6292   -7.4417    0.0000 N   0  0  0  0  0  0  0  0  0  0  0  0
    4.2375   -7.0875    0.0000 C   0  0  0  0  0  0  0  0  0  0  0  0
    4.8542   -7.4417    0.0000 C   0  0  0  0  0  0  0  0  0  0  0  0
    5.4625   -7.0792    0.0000 N   0  0  0  0  0  0  0  0  0  0  0  0
    6.0750   -7.4375    0.0000 N   0  0  0  0  0  0  0  0  0  0  0  0
    3.6292   -8.1542    0.0000 C   0  0  0  0  0  0  0  0  0  0  0  0
    4.8542   -8.1500    0.0000 C   0  0  0  0  0  0  0  0  0  0  0  0
    4.2292   -6.3875    0.0000 N   0  0  0  0  0  0  0  0  0  0  0  0
    4.2500   -8.5042    0.0000 C   0  0  0  0  0  0  0  0  0  0  0  0
    3.0125   -8.5167    0.0000 N   0  0  0  0  0  0  0  0  0  0  0  0
    6.6917   -7.0792    0.0000 C   0  0  0  0  0  0  0  0  0  0  0  0
    6.6792   -6.3667    0.0000 C   0  0  0  0  0  0  0  0  0  0  0  0
    7.3042   -7.4292    0.0000 C   0  0  0  0  0  0  0  0  0  0  0  0
    7.3042   -6.0042    0.0000 C   0  0  0  0  0  0  0  0  0  0  0  0
    7.9250   -7.0750    0.0000 C   0  0  0  0  0  0  0  0  0  0  0  0
    7.9250   -6.3625    0.0000 C   0  0  0  0  0  0  0  0  0  0  0  0
  3  2  2  0
  4  3  1  0
  5  4  1  0
  6  5  2  0
  7  2  1  0
  8 10  1  0
  9  3  1  0
 10  7  2  0
 11  7  1  0
 12  6  1  0
 13 12  1  0
 14 12  2  0
 15 13  2  0
 16 14  1  0
 17 15  1  0
  8  4  2  0
 17 16  2  0
M  END
> <chembl_id>
CHEMBL1201022

> <chembl_pref_name>
PHENAZOPYRIDINE HYDROCHLORIDE

$$$$

     RDKit          2D

 20 22  0  0  0  0  0  0  0  0999 V2000
    4.6417   -4.1250    0.0000 N   0  0  0  0  0  0  0  0  0  0  0  0
    5.2792   -3.8250    0.0000 C   0  0  0  0  0  0  0  0  0  0  0  0
    4.0125   -3.8167    0.0000 C   0  0  0  0  0  0  0  0  0  0  0  0
    5.4542   -3.1417    0.0000 C   0  0  0  0  0  0  0  0  0  0  0  0
    3.8542   -3.1292    0.0000 C   0  0  0  0  0  0  0  0  0  0  0  0
    5.0042   -2.5792    0.0000 C   0  0  0  0  0  0  0  0  0  0  0  0
    4.3000   -2.5792    0.0000 C   0  0  0  0  0  0  0  0  0  0  0  0
    4.6417   -4.8667    0.0000 C   0  0  0  0  0  0  0  0  0  0  0  0
    3.3917   -6.1917    0.0000 N   0  0  0  0  0  0  0  0  0  0  0  0
    4.0167   -5.1625    0.0000 C   0  0  0  0  0  0  0  0  0  0  0  0
    3.4792   -4.2917    0.0000 C   0  0  0  0  0  0  0  0  0  0  0  0
    5.7875   -4.3167    0.0000 C   0  0  0  0  0  0  0  0  0  0  0  0
    4.0167   -5.8417    0.0000 C   0  0  0  0  0  0  0  0  0  0  0  0
    3.1792   -2.9042    0.0000 C   0  0  0  0  0  0  0  0  0  0  0  0
    6.1500   -2.9417    0.0000 C   0  0  0  0  0  0  0  0  0  0  0  0
    3.3792   -6.8917    0.0000 C   0  0  0  0  0  0  0  0  0  0  0  0
    6.4792   -4.1292    0.0000 C   0  0  0  0  0  0  0  0  0  0  0  0
    2.8000   -4.0792    0.0000 C   0  0  0  0  0  0  0  0  0  0  0  0
    2.6500   -3.3792    0.0000 C   0  0  0  0  0  0  0  0  0  0  0  0
    6.6542   -3.4500    0.0000 C   0  0  0  0  0  0  0  0  0  0  0  0
  2  1  1  0
  3  1  1  0
  4  2  2  0
  5  3  2  0
  6  4  1  0
  7  5  1  0
  8  1  1  0
  9 13  1  0
 10  8  1  0
 11  3  1  0
 12  2  1  0
 13 10  1  0
 14  5  1  0
 15  4  1  0
 16  9  1  0
 17 12  2  0
 18 11  2  0
 19 18  1  0
 20 17  1  0
  7  6  1  0
 19 14  2  0
 20 15  2  0
M  END
> <chembl_id>
CHEMBL72

> <chembl_pref_name>
DESIPRAMINE

$$$$

     RDKit          2D

 11 11  0  0  0  0  0  0  0  0999 V2000
   10.8417   -3.8167    0.0000 S   0  0  0  0  0  0  0  0  0  0  0  0
   10.2292   -3.4667    0.0000 C   0  0  0  0  0  0  0  0  0  0  0  0
   10.4917   -4.4292    0.0000 O   0  0  0  0  0  0  0  0  0  0  0  0
   11.2042   -4.4292    0.0000 O   0  0  0  0  0  0  0  0  0  0  0  0
   11.4625   -3.4667    0.0000 N   0  0  0  0  0  0  0  0  0  0  0  0
   10.2292   -2.7542    0.0000 C   0  0  0  0  0  0  0  0  0  0  0  0
    9.6167   -3.8167    0.0000 C   0  0  0  0  0  0  0  0  0  0  0  0
    9.0042   -2.7542    0.0000 C   0  0  0  0  0  0  0  0  0  0  0  0
    8.3917   -2.3917    0.0000 N   0  0  0  0  0  0  0  0  0  0  0  0
    9.6167   -2.4000    0.0000 C   0  0  0  0  0  0  0  0  0  0  0  0
    9.0042   -3.4667    0.0000 C   0  0  0  0  0  0  0  0  0  0  0  0
  2  1  1  0
  3  1  2  0
  4  1  2  0
  5  1  1  0
  6  2  2  0
  7  2  1  0
  8 11  1  0
  9  8  1  0
 10  6  1  0
 11  7  2  0
 10  8  2  0
M  END
> <chembl_id>
CHEMBL21

> <chembl_pref_name>
SULFANILAMIDE

$$$$

     RDKit          2D

 21 24  0  0  0  0  0  0  0  0999 V2000
   -0.4208   -0.7292    0.0000 N   0  0  0  0  0  0  0  0  0  0  0  0
   -0.4125   -2.1417    0.0000 S   0  0  0  0  0  0  0  0  0  0  0  0
    0.1792   -1.0667    0.0000 C   0  0  0  0  0  0  0  0  0  0  0  0
   -1.0250   -1.0667    0.0000 C   0  0  0  0  0  0  0  0  0  0  0  0
    0.1792   -1.7917    0.0000 C   0  0  0  0  0  0  0  0  0  0  0  0
   -1.0208   -1.8000    0.0000 C   0  0  0  0  0  0  0  0  0  0  0  0
   -0.4208   -0.0167    0.0000 C   0  0  0  0  0  0  0  0  0  0  0  0
    1.3542    0.3708    0.0000 N   0  0  0  0  0  0  0  0  0  0  0  0
    0.1917    0.3375    0.0000 C   0  0  0  0  0  0  0  0  0  0  0  0
    0.7792   -0.0625    0.0000 C   0  0  0  0  0  0  0  0  0  0  0  0
    1.1292    1.0250    0.0000 C   0  0  0  0  0  0  0  0  0  0  0  0
    0.4042    1.0208    0.0000 C   0  0  0  0  0  0  0  0  0  0  0  0
    0.8042   -0.7167    0.0000 C   0  0  0  0  0  0  0  0  0  0  0  0
   -1.6333   -0.7292    0.0000 C   0  0  0  0  0  0  0  0  0  0  0  0
   -1.6208   -2.1417    0.0000 C   0  0  0  0  0  0  0  0  0  0  0  0
    0.8042   -2.1542    0.0000 C   0  0  0  0  0  0  0  0  0  0  0  0
    1.9667    0.0208    0.0000 C   0  0  0  0  0  0  0  0  0  0  0  0
    1.4292   -1.0667    0.0000 C   0  0  0  0  0  0  0  0  0  0  0  0
   -2.2333   -1.0750    0.0000 C   0  0  0  0  0  0  0  0  0  0  0  0
    1.4292   -1.7917    0.0000 C   0  0  0  0  0  0  0  0  0  0  0  0
   -2.2333   -1.8000    0.0000 C   0  0  0  0  0  0  0  0  0  0  0  0
  2  6  1  0
  3  1  1  0
  4  1  1  0
  5  3  2  0
  6  4  2  0
  7  1  1  0
  8 10  1  0
  9  7  1  0
 10  9  1  0
 11 12  1  0
 12  9  1  0
 13  3  1  0
 14  4  1  0
 15  6  1  0
 16  5  1  0
 17  8  1  0
 18 13  2  0
 19 14  2  0
 20 18  1  0
 21 19  1  0
  2  5  1  0
 11  8  1  0
 21 15  2  0
 20 16  2  0
M  END
> <chembl_id>
CHEMBL1200959

> <chembl_pref_name>
METHDILAZINE

$$$$

     RDKit          2D

 19 21  0  0  0  0  0  0  0  0999 V2000
    4.4750   -4.1125    0.0000 C   0  0  0  0  0  0  0  0  0  0  0  0
    4.4667   -4.8125    0.0000 C   0  0  0  0  0  0  0  0  0  0  0  0
    3.8625   -3.7500    0.0000 N   0  0  0  0  0  0  0  0  0  0  0  0
    3.2375   -4.8000    0.0000 N   0  0  0  0  0  0  0  0  0  0  0  0
    5.1000   -3.7542    0.0000 N   0  0  0  0  0  0  0  0  0  0  0  0
    5.0750   -5.1667    0.0000 N   0  0  0  0  0  0  0  0  0  0  0  0
    3.8417   -5.1542    0.0000 C   0  0  0  0  0  0  0  0  0  0  0  0
    3.2375   -4.0917    0.0000 C   0  0  0  0  0  0  0  0  0  0  0  0
    5.7000   -4.1167    0.0000 C   0  0  0  0  0  0  0  0  0  0  0  0
    5.6917   -4.8292    0.0000 C   0  0  0  0  0  0  0  0  0  0  0  0
    6.3042   -5.1917    0.0000 C   0  0  0  0  0  0  0  0  0  0  0  0
    3.8417   -5.8792    0.0000 N   0  0  0  0  0  0  0  0  0  0  0  0
    6.3167   -3.7667    0.0000 N   0  0  0  0  0  0  0  0  0  0  0  0
    2.6250   -3.7292    0.0000 N   0  0  0  0  0  0  0  0  0  0  0  0
    6.3000   -5.9000    0.0000 C   0  0  0  0  0  0  0  0  0  0  0  0
    6.9250   -4.8500    0.0000 C   0  0  0  0  0  0  0  0  0  0  0  0
    6.9125   -6.2625    0.0000 C   0  0  0  0  0  0  0  0  0  0  0  0
    7.5417   -5.2042    0.0000 C   0  0  0  0  0  0  0  0  0  0  0  0
    7.5375   -5.9125    0.0000 C   0  0  0  0  0  0  0  0  0  0  0  0
  2  1  1  0
  3  1  2  0
  4  8  2  0
  5  1  1  0
  6  2  1  0
  7  2  2  0
  8  3  1  0
  9  5  2  0
 10  9  1  0
 11 10  1  0
 12  7  1  0
 13  9  1  0
 14  8  1  0
 15 11  2  0
 16 11  1  0
 17 15  1  0
 18 16  2  0
 19 18  1  0
  4  7  1  0
 10  6  2  0
 19 17  2  0
M  END
> <chembl_id>
CHEMBL585

> <chembl_pref_name>
TRIAMTERENE

$$$$

     RDKit          2D

 15 16  0  0  0  0  0  0  0  0999 V2000
   -1.1449    3.6399    0.0000 S   0  0  0  0  0  0  0  0  0  0  0  0
   -2.5739    1.1649    0.0000 O   0  0  0  0  0  0  0  0  0  0  0  0
   -0.4305    2.4024    0.0000 N   0  0  0  0  0  0  0  0  0  0  0  0
   -1.8594    2.4024    0.0000 N   0  0  0  0  0  0  0  0  0  0  0  0
   -0.4305    1.5774    0.0000 C   0  0  0  0  0  0  0  0  0  0  0  0
   -1.1449    2.8149    0.0000 C   0  0  0  0  0  0  0  0  0  0  0  0
   -1.8594    1.5774    0.0000 C   0  0  0  0  0  0  0  0  0  0  0  0
   -1.1449    1.1649    0.0000 C   0  0  0  0  0  0  0  0  0  0  0  0
    0.2840    1.1649    0.0000 C   0  0  0  0  0  0  0  0  0  0  0  0
    0.2840    0.3399    0.0000 C   0  0  0  0  0  0  0  0  0  0  0  0
    0.9985   -0.0726    0.0000 C   0  0  0  0  0  0  0  0  0  0  0  0
   -0.4305   -0.0726    0.0000 C   0  0  0  0  0  0  0  0  0  0  0  0
    0.9985   -0.8976    0.0000 C   0  0  0  0  0  0  0  0  0  0  0  0
   -0.4305   -0.8976    0.0000 C   0  0  0  0  0  0  0  0  0  0  0  0
    0.2840   -1.3101    0.0000 C   0  0  0  0  0  0  0  0  0  0  0  0
  1  6  1  0
  2  7  1  0
  3  5  2  0
  3  6  1  0
  4  6  2  0
  4  7  1  0
  5  8  1  0
  5  9  1  0
  7  8  2  0
  9 10  1  0
 10 11  2  0
 10 12  1  0
 11 13  1  0
 12 14  2  0
 13 15  2  0
 14 15  1  0
M  END
> <chembl_id>
CHEMBL1491306

> <chembl_pref_name>
BENZYLTHIOURACIL

$$$$

     RDKit          2D

 11 11  0  0  0  0  0  0  0  0999 V2000
    4.1250   -5.5250    0.0000 C   0  0  0  0  0  0  0  0  0  0  0  0
    2.8917   -6.2417    0.0000 C   0  0  0  0  0  0  0  0  0  0  0  0
    4.7417   -5.1750    0.0000 C   0  0  0  0  0  0  0  0  0  0  0  0
    5.3542   -6.2292    0.0000 N   0  0  0  0  0  0  0  0  0  0  0  0
    3.5042   -5.1792    0.0000 C   0  0  0  0  0  0  0  0  0  0  0  0
    4.1292   -6.2417    0.0000 C   0  0  0  0  0  0  0  0  0  0  0  0
    3.5042   -6.6000    0.0000 C   0  0  0  0  0  0  0  0  0  0  0  0
    2.8917   -5.5292    0.0000 C   0  0  0  0  0  0  0  0  0  0  0  0
    2.2750   -6.6000    0.0000 O   0  0  0  0  0  0  0  0  0  0  0  0
    5.3542   -5.5250    0.0000 C   0  0  0  0  0  0  0  0  0  0  0  0
    5.9667   -5.1667    0.0000 C   0  0  0  0  0  0  0  0  0  0  0  0
  2  8  2  0
  3  1  1  0
  4 10  1  0
  5  1  2  0
  6  1  1  0
  7  6  2  0
  8  5  1  0
  9  2  1  0
 10  3  1  0
 11 10  1  0
  2  7  1  0
M  END
> <chembl_id>
CHEMBL1546

> <chembl_pref_name>
HYDROXYAMPHETAMINE

$$$$

     RDKit          2D

 13 14  0  0  0  0  0  0  0  0999 V2000
   -0.4833   -1.2625    0.0000 C   0  0  0  0  0  0  0  0  0  0  0  0
    0.7500   -0.5292    0.0000 C   0  0  0  0  0  0  0  0  0  0  0  0
   -1.7250   -0.5292    0.0000 C   0  0  0  0  0  0  0  0  0  0  0  0
    0.7667    0.8625    0.0000 C   0  0  0  0  0  0  0  0  0  0  0  0
   -0.4833    1.6208    0.0000 C   0  0  0  0  0  0  0  0  0  0  0  0
   -1.7250    0.9000    0.0000 C   0  0  0  0  0  0  0  0  0  0  0  0
    1.9917   -1.2625    0.0000 N   0  0  0  0  0  0  0  0  0  0  0  0
   -0.4833   -2.6750    0.0000 O   0  0  0  0  0  0  0  0  0  0  0  0
   -2.9750   -1.2250    0.0000 Br  0  0  0  0  0  0  0  0  0  0  0  0
   -0.4833    3.0333    0.0000 C   0  0  0  0  0  0  0  0  0  0  0  0
    1.9917    1.6208    0.0000 C   0  0  0  0  0  0  0  0  0  0  0  0
    3.2417   -0.5292    0.0000 C   0  0  0  0  0  0  0  0  0  0  0  0
    3.2417    0.8833    0.0000 C   0  0  0  0  0  0  0  0  0  0  0  0
  2  1  1  0
  3  1  2  0
  4  2  1  0
  5  6  2  0
  6  3  1  0
  7  2  2  0
  8  1  1  0
  9  3  1  0
 10  5  1  0
 11  4  2  0
 12  7  1  0
 13 12  2  0
  4  5  1  0
 11 13  1  0
M  END
> <chembl_id>
CHEMBL1788385

> <chembl_pref_name>
TILBROQUINOL

$$$$

     RDKit          2D

 23 27  0  0  1  0  0  0  0  0999 V2000
    0.7375   -6.3458    0.0000 N   0  0  0  0  0  0  0  0  0  0  0  0
    0.1125   -5.9917    0.0000 C   0  0  0  0  0  0  0  0  0  0  0  0
   -0.5125   -6.3458    0.0000 C   0  0  0  0  0  0  0  0  0  0  0  0
    1.3625   -5.9917    0.0000 C   0  0  0  0  0  0  0  0  0  0  0  0
    0.7375   -7.0708    0.0000 C   0  0  0  0  0  0  0  0  0  0  0  0
   -0.5125   -7.0708    0.0000 C   0  0  0  0  0  0  0  0  0  0  0  0
    0.1125   -7.4333    0.0000 C   0  0  0  0  0  0  0  0  0  0  0  0
    1.9875   -4.9083    0.0000 N   0  0  0  0  0  0  0  0  0  0  0  0
    1.3625   -5.2708    0.0000 C   0  0  0  0  0  0  0  0  0  0  0  0
    0.1125   -5.2708    0.0000 O   0  0  0  0  0  0  0  0  0  0  0  0
    1.9875   -6.3458    0.0000 C   0  0  0  0  0  0  0  0  0  0  0  0
   -1.1333   -7.4333    0.0000 C   0  0  0  0  0  0  0  0  0  0  0  0
    2.6125   -5.9917    0.0000 C   0  0  0  0  0  0  0  0  0  0  0  0
    2.2417   -5.8083    0.0000 C   0  0  0  0  0  0  0  0  0  0  0  0
    2.6125   -5.2708    0.0000 C   0  0  0  0  0  0  0  0  0  0  0  0
    1.7625   -5.5208    0.0000 C   0  0  0  0  0  0  0  0  0  0  0  0
   -1.1375   -5.9833    0.0000 C   0  0  0  0  0  0  0  0  0  0  0  0
    0.1125   -8.1542    0.0000 C   0  0  0  0  0  0  0  0  0  0  0  0
   -1.7625   -6.3458    0.0000 C   0  0  0  0  0  0  0  0  0  0  0  0
   -0.5125   -8.5167    0.0000 C   0  0  0  0  0  0  0  0  0  0  0  0
   -1.7625   -7.0708    0.0000 C   0  0  0  0  0  0  0  0  0  0  0  0
   -1.1333   -8.1542    0.0000 C   0  0  0  0  0  0  0  0  0  0  0  0
    0.9790   -7.9324    0.0000 H   0  0  0  0  0  0  0  0  0  0  0  0
  2  1  1  0
  3  2  1  0
  4  1  1  6
  5  1  1  0
  6  7  1  0
  7  5  1  0
  8  9  1  0
  9  4  1  0
 10  2  2  0
 11  4  1  0
 12  6  1  0
 13 11  1  0
 14 11  1  0
 15 13  1  0
 16 14  1  0
 17  3  1  0
 18  7  1  0
 19 17  2  0
 20 18  1  0
 21 12  2  0
 22 20  1  0
  3  6  2  0
  8 16  1  0
 15  8  1  0
 22 12  1  0
 19 21  1  0
  7 23  1  6
M  END
> <chembl_id>
CHEMBL1189679

> <chembl_pref_name>
PALONOSETRON

$$$$

     RDKit          2D

 12  4  0  0  0  0  0  0  0  0999 V2000
   15.5571  -10.2241    0.0000 O   0  0  0  0  0  0  0  0  0  0  0  0
   11.1624   -7.9502    0.0000 S   0  0  0  0  0  0  0  0  0  0  0  0
   11.5690   -7.2290    0.0000 S   0  0  0  0  0  0  0  0  0  0  0  0
   11.8740   -8.3617    0.0000 O   0  0  0  0  0  0  0  0  0  0  0  0
   10.4508   -8.3617    0.0000 O   0  0  0  0  0  0  0  0  0  0  0  0
   10.7412   -7.2290    0.0000 O   0  0  0  0  0  0  0  0  0  0  0  0
    9.5794   -8.4004    0.0000 Na  0  0  0  0  0 15  0  0  0  0  0  0
   12.5856   -8.3617    0.0000 Na  0  0  0  0  0 15  0  0  0  0  0  0
    9.6348  -10.1946    0.0000 O   0  0  0  0  0  0  0  0  0  0  0  0
   10.8723  -10.2241    0.0000 O   0  0  0  0  0  0  0  0  0  0  0  0
   12.3750  -10.2241    0.0000 O   0  0  0  0  0  0  0  0  0  0  0  0
   13.4652  -10.2241    0.0000 O   0  0  0  0  0  0  0  0  0  0  0  0
  3  2  2  0
  4  2  1  0
  5  2  1  0
  6  2  2  0
M  CHG  4   4  -1   5  -1   7   1   8   1
M  END
> <chembl_id>
CHEMBL2096650

> <chembl_pref_name>
SODIUM THIOSULFATE

$$$$

     RDKit          2D

 19 20  0  0  0  0  0  0  0  0999 V2000
    3.0292   -0.0417    0.0000 C   0  0  0  0  0  0  0  0  0  0  0  0
    2.4167   -0.4042    0.0000 C   0  0  0  0  0  0  0  0  0  0  0  0
   -0.6458   -1.4750    0.0000 C   0  0  0  0  0  0  0  0  0  0  0  0
    4.1750   -0.0417    0.0000 N   0  0  0  0  0  0  0  0  0  0  0  0
    3.2500    0.6250    0.0000 C   0  0  0  0  0  0  0  0  0  0  0  0
    1.8042   -0.0500    0.0000 N   0  0  0  0  0  0  0  0  0  0  0  0
    3.9542    0.6250    0.0000 O   0  0  0  0  0  0  0  0  0  0  0  0
    3.6000   -0.4667    0.0000 C   0  0  0  0  0  0  0  0  0  0  0  0
   -0.0333   -1.1167    0.0000 C   0  0  0  0  0  0  0  0  0  0  0  0
    2.4167   -1.1125    0.0000 O   0  0  0  0  0  0  0  0  0  0  0  0
   -1.2625   -1.1167    0.0000 F   0  0  0  0  0  0  0  0  0  0  0  0
   -0.2958   -2.0875    0.0000 F   0  0  0  0  0  0  0  0  0  0  0  0
   -1.0083   -2.0875    0.0000 F   0  0  0  0  0  0  0  0  0  0  0  0
    0.5792   -1.4750    0.0000 C   0  0  0  0  0  0  0  0  0  0  0  0
   -0.0333   -0.4125    0.0000 C   0  0  0  0  0  0  0  0  0  0  0  0
    1.1917   -0.4042    0.0000 C   0  0  0  0  0  0  0  0  0  0  0  0
    0.5792   -0.0542    0.0000 C   0  0  0  0  0  0  0  0  0  0  0  0
    1.1917   -1.1167    0.0000 C   0  0  0  0  0  0  0  0  0  0  0  0
    2.6292    0.9833    0.0000 C   0  0  0  0  0  0  0  0  0  0  0  0
  2  1  1  0
  3  9  1  0
  4  8  2  0
  5  1  2  0
  6  2  1  0
  7  5  1  0
  8  1  1  0
  9 14  1  0
 10  2  2  0
 11  3  1  0
 12  3  1  0
 13  3  1  0
 14 18  2  0
 15 17  1  0
 16  6  1  0
 17 16  2  0
 18 16  1  0
 19  5  1  0
  4  7  1  0
  9 15  2  0
M  END
> <chembl_id>
CHEMBL960

> <chembl_pref_name>
LEFLUNOMIDE

$$$$

     RDKit          2D

 18 17  0  0  0  0  0  0  0  0999 V2000
    4.3331  -15.5956    0.0000 C   0  0  0  0  0  0  0  0  0  0  0  0
    5.0454  -16.0060    0.0000 C   0  0  0  0  0  0  0  0  0  0  0  0
    5.7618  -15.5956    0.0000 C   0  0  0  0  0  0  0  0  0  0  0  0
    5.7618  -14.7706    0.0000 C   0  0  0  0  0  0  0  0  0  0  0  0
    5.7618  -13.9457    0.0000 C   0  0  0  0  0  0  0  0  0  0  0  0
    5.0454  -13.5311    0.0000 O   0  0  0  0  0  0  0  0  0  0  0  0
    5.0454  -12.7061    0.0000 C   0  0  0  0  0  0  0  0  0  0  0  0
    4.3331  -12.2916    0.0000 N   0  0  0  0  0  0  0  0  0  0  0  0
    4.3331  -11.4666    0.0000 C   0  0  0  0  0  0  0  0  0  0  0  0
    3.6168  -11.0562    0.0000 C   0  0  0  0  0  0  0  0  0  0  0  0
    5.0454  -11.0562    0.0000 C   0  0  0  0  0  0  0  0  0  0  0  0
    5.7618  -12.2916    0.0000 O   0  0  0  0  0  0  0  0  0  0  0  0
    4.9368  -14.7706    0.0000 C   0  0  0  0  0  0  0  0  0  0  0  0
    6.5868  -14.7706    0.0000 C   0  0  0  0  0  0  0  0  0  0  0  0
    6.9972  -14.0543    0.0000 O   0  0  0  0  0  0  0  0  0  0  0  0
    7.8221  -14.0543    0.0000 C   0  0  0  0  0  0  0  0  0  0  0  0
    8.2367  -13.3420    0.0000 N   0  0  0  0  0  0  0  0  0  0  0  0
    8.2367  -14.7706    0.0000 O   0  0  0  0  0  0  0  0  0  0  0  0
  1  2  1  0
  2  3  1  0
  3  4  1  0
  4  5  1  0
  5  6  1  0
  6  7  1  0
  7  8  1  0
  8  9  1  0
  9 10  1  0
  9 11  1  0
  7 12  2  0
  4 13  1  0
  4 14  1  0
 14 15  1  0
 15 16  1  0
 16 17  1  0
 16 18  2  0
M  END
> <chembl_id>
CHEMBL1233

> <chembl_pref_name>
CARISOPRODOL

$$$$

     RDKit          2D

 12 11  0  0  0  0  0  0  0  0999 V2000
   -0.7375   -0.5375    0.0000 P   0  0  0  0  0  0  0  0  0  0  0  0
    0.6917   -0.5375    0.0000 C   0  0  0  0  0  0  0  0  0  0  0  0
    1.3792    0.7208    0.0000 C   0  0  0  0  0  0  0  0  0  0  0  0
   -1.2833   -1.8500    0.0000 O   0  0  0  0  0  0  0  0  0  0  0  0
    0.6417    1.9583    0.0000 Cl  0  0  0  0  0  0  0  0  0  0  0  0
    2.7667    1.0958    0.0000 Cl  0  0  0  0  0  0  0  0  0  0  0  0
    2.7667    0.3458    0.0000 Cl  0  0  0  0  0  0  0  0  0  0  0  0
   -2.0833   -0.0542    0.0000 O   0  0  0  0  0  0  0  0  0  0  0  0
   -1.0375    0.8875    0.0000 O   0  0  0  0  0  0  0  0  0  0  0  0
    1.3792   -1.7625    0.0000 O   0  0  0  0  0  0  0  0  0  0  0  0
   -3.1625   -0.9792    0.0000 C   0  0  0  0  0  0  0  0  0  0  0  0
   -2.4208    1.3375    0.0000 C   0  0  0  0  0  0  0  0  0  0  0  0
  2  1  1  0
  3  2  1  0
  4  1  2  0
  5  3  1  0
  6  3  1  0
  7  3  1  0
  8  1  1  0
  9  1  1  0
 10  2  1  0
 11  8  1  0
 12  9  1  0
M  END
> <chembl_id>
CHEMBL167150

> <chembl_pref_name>
TRICHLORFON

$$$$

     RDKit          2D

 13 12  0  0  0  0  0  0  0  0999 V2000
    3.8042   -7.8417    0.0000 Cl  0  0  0  0  0  0  0  0  0  0  0  0
    3.4625   -7.1917    0.0000 C   0  0  0  0  0  0  0  0  0  0  0  0
    2.8417   -7.5417    0.0000 C   0  0  0  0  0  0  0  0  0  0  0  0
    4.7000   -7.2042    0.0000 N   0  0  0  0  0  0  0  0  0  0  0  0
    5.3042   -6.8667    0.0000 C   0  0  0  0  0  0  0  0  0  0  0  0
    4.0792   -6.8417    0.0000 C   0  0  0  0  0  0  0  0  0  0  0  0
    5.9250   -7.2167    0.0000 C   0  0  0  0  0  0  0  0  0  0  0  0
    4.6917   -7.9167    0.0000 C   0  0  0  0  0  0  0  0  0  0  0  0
    6.5417   -6.8792    0.0000 C   0  0  0  0  0  0  0  0  0  0  0  0
    5.9125   -7.9292    0.0000 C   0  0  0  0  0  0  0  0  0  0  0  0
    6.5250   -8.2917    0.0000 C   0  0  0  0  0  0  0  0  0  0  0  0
    7.1542   -7.2417    0.0000 C   0  0  0  0  0  0  0  0  0  0  0  0
    7.1417   -7.9417    0.0000 C   0  0  0  0  0  0  0  0  0  0  0  0
  3  2  3  0
  4  6  1  0
  5  4  1  0
  6  2  1  0
  7  5  1  0
  8  4  1  0
  9  7  1  0
 10  7  2  0
 11 10  1  0
 12  9  2  0
 13 12  1  0
 13 11  2  0
M  END
> <chembl_id>
CHEMBL1200425

> <chembl_pref_name>
PARGYLINE HYDROCHLORIDE

$$$$

     RDKit          2D

 15 15  0  0  0  0  0  0  0  0999 V2000
    0.9865   -3.8195    0.0000 O   0  0  0  0  0  0  0  0  0  0  0  0
    1.8449   -3.3810    0.0000 C   0  0  0  0  0  0  0  0  0  0  0  0
    1.1023   -2.2151    0.0000 C   0  0  0  0  0  0  0  0  0  0  0  0
    0.4350   -1.7808    0.0000 H   0  0  0  0  0  0  0  0  0  0  0  0
    1.1261   -1.3697    0.0000 C   0  0  0  0  0  0  0  0  0  0  0  0
    1.1332   -0.5666    0.0000 H   0  0  0  0  0  0  0  0  0  0  0  0
    2.5414   -1.3855    0.0000 C   0  0  0  0  0  0  0  0  0  0  0  0
    2.5363   -2.1957    0.0000 N   0  0  0  0  0  0  0  0  0  0  0  0
    1.8545   -0.9719    0.0000 C   0  0  0  0  0  0  0  0  0  0  0  0
    1.8452   -2.6372    0.0000 C   0  0  0  0  0  0  0  0  0  0  0  0
    0.2833   -2.6003    0.0000 O   0  0  0  0  0  0  0  0  0  0  0  0
    0.2883   -0.9865    0.0000 O   0  0  0  0  0  0  0  0  0  0  0  0
    2.5396   -0.5666    0.0000 H   0  0  0  0  0  0  0  0  0  0  0  0
    1.9932   -0.1720    0.0000 O   0  0  0  0  0  0  0  0  0  0  0  0
    1.1332   -3.0050    0.0000 H   0  0  0  0  0  0  0  0  0  0  0  0
  1  2  1  0
  3  4  1  1
  3 10  1  0
  3 11  1  6
  5  6  1  1
  5  3  1  0
  5 12  1  6
  7  8  1  0
  7  9  1  0
  9  5  1  0
  9 13  1  6
  9 14  1  1
 10  8  1  0
 10  2  1  6
 10 15  1  1
M  END
> <chembl_id>
CHEMBL110458

> <chembl_pref_name>
MIGALASTAT

$$$$

     RDKit          2D

 18 20  0  0  0  0  0  0  0  0999 V2000
    5.0667   -5.0667    0.0000 N   0  0  0  0  0  0  0  0  0  0  0  0
    5.0667   -5.7750    0.0000 C   0  0  0  0  0  0  0  0  0  0  0  0
    4.4292   -4.7625    0.0000 C   0  0  0  0  0  0  0  0  0  0  0  0
    5.7042   -4.7625    0.0000 C   0  0  0  0  0  0  0  0  0  0  0  0
    5.4167   -3.5167    0.0000 C   0  0  0  0  0  0  0  0  0  0  0  0
    4.7167   -3.5167    0.0000 C   0  0  0  0  0  0  0  0  0  0  0  0
    5.8667   -4.0667    0.0000 C   0  0  0  0  0  0  0  0  0  0  0  0
    4.2792   -4.0667    0.0000 C   0  0  0  0  0  0  0  0  0  0  0  0
    5.6875   -6.1375    0.0000 O   0  0  0  0  0  0  0  0  0  0  0  0
    4.4542   -6.1375    0.0000 N   0  0  0  0  0  0  0  0  0  0  0  0
    6.2292   -5.2417    0.0000 C   0  0  0  0  0  0  0  0  0  0  0  0
    3.9125   -5.2417    0.0000 C   0  0  0  0  0  0  0  0  0  0  0  0
    3.5917   -3.8625    0.0000 C   0  0  0  0  0  0  0  0  0  0  0  0
    6.5417   -3.8625    0.0000 C   0  0  0  0  0  0  0  0  0  0  0  0
    6.9125   -5.0292    0.0000 C   0  0  0  0  0  0  0  0  0  0  0  0
    3.2292   -5.0292    0.0000 C   0  0  0  0  0  0  0  0  0  0  0  0
    7.0750   -4.3417    0.0000 C   0  0  0  0  0  0  0  0  0  0  0  0
    3.0667   -4.3417    0.0000 C   0  0  0  0  0  0  0  0  0  0  0  0
  2  1  1  0
  3  1  1  0
  4  1  1  0
  5  7  1  0
  6  8  1  0
  7  4  1  0
  8  3  2  0
  9  2  2  0
 10  2  1  0
 11  4  2  0
 12  3  1  0
 13  8  1  0
 14  7  2  0
 15 11  1  0
 16 12  2  0
 17 15  2  0
 18 16  1  0
  6  5  2  0
 17 14  1  0
 18 13  2  0
M  END
> <chembl_id>
CHEMBL108

> <chembl_pref_name>
CARBAMAZEPINE

$$$$

     RDKit          2D

 21 24  0  0  1  0  0  0  0  0999 V2000
    2.8292   -5.5500    0.0000 C   0  0  0  0  0  0  0  0  0  0  0  0
    3.5250   -5.7542    0.0000 N   0  0  0  0  0  0  0  0  0  0  0  0
    2.8292   -4.8250    0.0000 C   0  0  0  0  0  0  0  0  0  0  0  0
    2.2167   -4.4792    0.0000 C   0  0  0  0  0  0  0  0  0  0  0  0
    2.2167   -5.8917    0.0000 N   0  0  0  0  0  0  0  0  0  0  0  0
    3.5250   -4.6167    0.0000 N   0  0  0  0  0  0  0  0  0  0  0  0
    1.6250   -4.8250    0.0000 N   0  0  0  0  0  0  0  0  0  0  0  0
    3.9125   -5.1875    0.0000 C   0  0  0  0  0  0  0  0  0  0  0  0
    1.6250   -5.5500    0.0000 C   0  0  0  0  0  0  0  0  0  0  0  0
    3.5250   -6.7167    0.0000 C   0  0  0  0  0  0  0  0  0  0  0  0
    2.2167   -3.7917    0.0000 N   0  0  0  0  0  0  0  0  0  0  0  0
    3.3042   -7.3667    0.0000 C   0  0  0  0  0  0  0  0  0  0  0  0
    2.8250   -3.4417    0.0000 C   0  0  0  0  0  0  0  0  0  0  0  0
    2.6167   -7.3667    0.0000 C   0  0  0  0  0  0  0  0  0  0  0  0
    3.5042   -3.4542    0.0000 C   0  0  0  0  0  0  0  0  0  0  0  0
    3.1750   -2.8542    0.0000 C   0  0  0  0  0  0  0  0  0  0  0  0
    2.9667   -6.2917    0.0000 C   0  0  0  0  0  0  0  0  0  0  0  0
    1.0125   -5.8917    0.0000 N   0  0  0  0  0  0  0  0  0  0  0  0
    2.3917   -6.7125    0.0000 C   0  0  0  0  0  0  0  0  0  0  0  0
    1.1750   -6.7125    0.0000 O   0  0  0  0  0  0  0  0  0  0  0  0
    1.7875   -6.3625    0.0000 C   0  0  0  0  0  0  0  0  0  0  0  0
  2  1  1  0
  3  1  2  0
  4  3  1  0
  5  1  1  0
  6  3  1  0
  7  4  2  0
  8  2  1  0
  9  5  2  0
 10  2  1  1
 11  4  1  0
 12 10  1  0
 13 11  1  0
 14 12  2  0
 15 13  1  0
 16 13  1  0
 17 10  1  0
 18  9  1  0
 19 17  1  0
 20 21  1  0
 19 21  1  1
  8  6  2  0
  9  7  1  0
 14 19  1  0
 15 16  1  0
M  END
> <chembl_id>
CHEMBL1380

> <chembl_pref_name>
ABACAVIR

$$$$

     RDKit          2D

 18 19  0  0  1  0  0  0  0  0999 V2000
   -1.0875    0.2000    0.0000 C   0  0  0  0  0  0  0  0  0  0  0  0
   -1.0875   -0.9667    0.0000 C   0  0  0  0  0  0  0  0  0  0  0  0
   -2.1083   -1.5875    0.0000 N   0  0  0  0  0  0  0  0  0  0  0  0
   -0.0708    0.7833    0.0000 N   0  0  0  0  0  0  0  0  0  0  0  0
   -3.1333    0.2000    0.0000 N   0  0  0  0  0  0  0  0  0  0  0  0
   -2.1083    0.7833    0.0000 C   0  0  0  0  0  0  0  0  0  0  0  0
   -3.1333   -0.9667    0.0000 C   0  0  0  0  0  0  0  0  0  0  0  0
    0.9542    0.2000    0.0000 C   0  0  0  0  0  0  0  0  0  0  0  0
   -0.0708   -1.5875    0.0000 N   0  0  0  0  0  0  0  0  0  0  0  0
    2.3375    0.2000    0.0000 C   0  0  0  0  0  0  0  0  0  0  0  0
    0.9542   -0.9667    0.0000 C   0  0  0  0  0  0  0  0  0  0  0  0
   -2.1083    1.9833    0.0000 O   0  0  0  0  0  0  0  0  0  0  0  0
   -4.1833   -1.5542    0.0000 N   0  0  0  0  0  0  0  0  0  0  0  0
    2.7917   -0.7667    0.0000 C   0  0  0  0  0  0  0  0  0  0  0  0
    3.7542    0.8000    0.0000 O   0  0  0  0  0  0  0  0  0  0  0  0
    1.9375   -1.7542    0.0000 O   0  0  0  0  0  0  0  0  0  0  0  0
    4.3417   -0.7667    0.0000 C   0  0  0  0  0  0  0  0  0  0  0  0
    0.0897   -0.3027    0.0000 H   0  0  0  0  0  0  0  0  0  0  0  0
  2  1  2  0
  3  2  1  0
  4  1  1  0
  5  6  1  0
  6  1  1  0
  7  5  1  0
  8  4  1  0
  9  2  1  0
 10  8  1  0
 11  8  1  0
 12  6  2  0
 13  7  1  0
 14 10  1  0
 10 15  1  1
 14 16  1  6
 17 14  1  0
  3  7  2  0
  9 11  1  0
  8 18  1  6
M  END
> <chembl_id>
CHEMBL1201774

> <chembl_pref_name>
SAPROPTERIN

$$$$

     RDKit          2D

 15 16  0  0  0  0  0  0  0  0999 V2000
    5.2125   -4.3125    0.0000 N   0  0  0  0  0  0  0  0  0  0  0  0
    4.6167   -4.6417    0.0000 C   0  0  0  0  0  0  0  0  0  0  0  0
    5.8292   -4.6667    0.0000 C   0  0  0  0  0  0  0  0  0  0  0  0
    4.6167   -5.3542    0.0000 C   0  0  0  0  0  0  0  0  0  0  0  0
    5.8292   -5.3875    0.0000 C   0  0  0  0  0  0  0  0  0  0  0  0
    5.2292   -5.7167    0.0000 C   0  0  0  0  0  0  0  0  0  0  0  0
    6.4792   -4.3292    0.0000 O   0  0  0  0  0  0  0  0  0  0  0  0
    4.0042   -4.2792    0.0000 C   0  0  0  0  0  0  0  0  0  0  0  0
    5.2042   -3.6042    0.0000 O   0  0  0  0  0  0  0  0  0  0  0  0
    5.2292   -6.4292    0.0000 C   0  0  0  0  0  0  0  0  0  0  0  0
    3.4125   -4.6167    0.0000 C   0  0  0  0  0  0  0  0  0  0  0  0
    4.0292   -3.5667    0.0000 C   0  0  0  0  0  0  0  0  0  0  0  0
    3.4167   -3.2042    0.0000 C   0  0  0  0  0  0  0  0  0  0  0  0
    2.7792   -4.2417    0.0000 C   0  0  0  0  0  0  0  0  0  0  0  0
    2.7917   -3.5500    0.0000 C   0  0  0  0  0  0  0  0  0  0  0  0
  2  1  1  0
  3  1  1  0
  4  2  2  0
  5  3  1  0
  6  5  2  0
  7  3  2  0
  8  2  1  0
  9  1  1  0
 10  6  1  0
 11  8  1  0
 12  8  1  0
 13 12  1  0
 14 11  1  0
 15 13  1  0
  6  4  1  0
 15 14  1  0
M  END
> <chembl_id>
CHEMBL1413

> <chembl_pref_name>
CICLOPIROX

$$$$

     RDKit          2D

 17 18  0  0  0  0  0  0  0  0999 V2000
    0.0375    0.5833    0.0000 C   0  0  0  0  0  0  0  0  0  0  0  0
   -1.0625    1.2208    0.0000 C   0  0  0  0  0  0  0  0  0  0  0  0
   -2.1458    0.6000    0.0000 C   0  0  0  0  0  0  0  0  0  0  0  0
    0.0375   -0.6667    0.0000 C   0  0  0  0  0  0  0  0  0  0  0  0
    2.2417   -0.6542    0.0000 N   0  0  0  0  0  0  0  0  0  0  0  0
    2.2292    0.5500    0.0000 C   0  0  0  0  0  0  0  0  0  0  0  0
    1.1542    1.2083    0.0000 C   0  0  0  0  0  0  0  0  0  0  0  0
   -2.1458   -0.6667    0.0000 C   0  0  0  0  0  0  0  0  0  0  0  0
   -1.0625   -1.3000    0.0000 C   0  0  0  0  0  0  0  0  0  0  0  0
    1.1500    2.4458    0.0000 O   0  0  0  0  0  0  0  0  0  0  0  0
    3.2292   -1.3042    0.0000 C   0  0  0  0  0  0  0  0  0  0  0  0
   -3.2458    1.2208    0.0000 C   0  0  0  0  0  0  0  0  0  0  0  0
   -3.2458   -1.3000    0.0000 C   0  0  0  0  0  0  0  0  0  0  0  0
    3.1875   -2.5875    0.0000 C   0  0  0  0  0  0  0  0  0  0  0  0
    4.3417   -0.7292    0.0000 C   0  0  0  0  0  0  0  0  0  0  0  0
   -4.3458    0.5833    0.0000 C   0  0  0  0  0  0  0  0  0  0  0  0
   -4.3458   -0.6667    0.0000 C   0  0  0  0  0  0  0  0  0  0  0  0
  2  1  2  0
  3  2  1  0
  4  1  1  0
  5  6  1  0
  6  7  1  0
  7  1  1  0
  8  9  1  0
  9  4  2  0
 10  7  1  0
 11  5  1  0
 12  3  2  0
 13  8  2  0
 14 11  1  0
 15 11  1  0
 16 12  1  0
 17 13  1  0
  3  8  1  0
 16 17  2  0
M  END
> <chembl_id>
CHEMBL16476

> <chembl_pref_name>
PRONETALOL

$$$$

     RDKit          2D

  1  0  0  0  0  0  0  0  0  0999 V2000
    0.0000    0.0107    0.0000 As  0  0  0  0  0  3  0  0  0  0  0  0
M  END
> <chembl_id>
CHEMBL1231052

> <chembl_pref_name>
ARSENIC

$$$$

     RDKit          2D

 17 17  0  0  0  0  0  0  0  0999 V2000
    4.7750   -4.0000    0.0000 Cl  0  0  0  0  0  0  0  0  0  0  0  0
    3.7042   -5.3292    0.0000 C   0  0  0  0  0  0  0  0  0  0  0  0
    4.4167   -5.3417    0.0000 C   0  0  0  0  0  0  0  0  0  0  0  0
    3.0917   -5.0042    0.0000 C   0  0  0  0  0  0  0  0  0  0  0  0
    4.7625   -5.9625    0.0000 C   0  0  0  0  0  0  0  0  0  0  0  0
    4.0042   -4.6917    0.0000 N   0  0  0  0  0  0  0  0  0  0  0  0
    3.0917   -4.2917    0.0000 O   0  0  0  0  0  0  0  0  0  0  0  0
    4.4042   -6.5667    0.0000 Cl  0  0  0  0  0  0  0  0  0  0  0  0
    3.7167   -6.0667    0.0000 C   0  0  0  0  0  0  0  0  0  0  0  0
    4.7667   -4.7292    0.0000 C   0  0  0  0  0  0  0  0  0  0  0  0
    2.4792   -5.3542    0.0000 C   0  0  0  0  0  0  0  0  0  0  0  0
    5.4792   -5.9542    0.0000 C   0  0  0  0  0  0  0  0  0  0  0  0
    3.6042   -4.1125    0.0000 C   0  0  0  0  0  0  0  0  0  0  0  0
    3.0917   -6.4250    0.0000 C   0  0  0  0  0  0  0  0  0  0  0  0
    5.4750   -4.7250    0.0000 C   0  0  0  0  0  0  0  0  0  0  0  0
    2.4792   -6.0667    0.0000 C   0  0  0  0  0  0  0  0  0  0  0  0
    5.8292   -5.3500    0.0000 C   0  0  0  0  0  0  0  0  0  0  0  0
  3  2  1  0
  4  2  1  0
  5  3  2  0
  6  2  1  0
  7  4  2  0
  8  5  1  0
  9  2  1  0
 10  3  1  0
 11  4  1  0
 12  5  1  0
 13  6  1  0
 14  9  1  0
 15 10  2  0
 16 14  1  0
 17 15  1  0
 16 11  1  0
 17 12  2  0
M  END
> <chembl_id>
CHEMBL1714

> <chembl_pref_name>
KETAMINE HYDROCHLORIDE

$$$$

     RDKit          2D

 17 18  0  0  0  0  0  0  0  0999 V2000
    6.0542   -5.4375    0.0000 Cl  0  0  0  0  0  0  0  0  0  0  0  0
    5.1292   -4.2167    0.0000 C   0  0  0  0  0  0  0  0  0  0  0  0
    5.3292   -3.5292    0.0000 N   0  0  0  0  0  0  0  0  0  0  0  0
    4.5292   -5.2875    0.0000 C   0  0  0  0  0  0  0  0  0  0  0  0
    5.7042   -4.6167    0.0000 N   0  0  0  0  0  0  0  0  0  0  0  0
    3.9167   -5.6417    0.0000 C   0  0  0  0  0  0  0  0  0  0  0  0
    4.5125   -4.5792    0.0000 C   0  0  0  0  0  0  0  0  0  0  0  0
    3.9167   -6.3542    0.0000 C   0  0  0  0  0  0  0  0  0  0  0  0
    6.0542   -3.5167    0.0000 C   0  0  0  0  0  0  0  0  0  0  0  0
    5.1292   -5.6375    0.0000 C   0  0  0  0  0  0  0  0  0  0  0  0
    6.2750   -4.1917    0.0000 C   0  0  0  0  0  0  0  0  0  0  0  0
    5.1500   -6.3417    0.0000 C   0  0  0  0  0  0  0  0  0  0  0  0
    3.3000   -5.2917    0.0000 C   0  0  0  0  0  0  0  0  0  0  0  0
    4.5292   -6.7000    0.0000 C   0  0  0  0  0  0  0  0  0  0  0  0
    3.3000   -6.7167    0.0000 C   0  0  0  0  0  0  0  0  0  0  0  0
    2.6792   -5.6542    0.0000 C   0  0  0  0  0  0  0  0  0  0  0  0
    2.6792   -6.3750    0.0000 C   0  0  0  0  0  0  0  0  0  0  0  0
  3  2  2  0
  4  7  1  0
  5  2  1  0
  6  4  2  0
  7  2  1  0
  8  6  1  0
  9  3  1  0
 10  4  1  0
 11  5  1  0
 12 10  2  0
 13  6  1  0
 14 12  1  0
 15  8  1  0
 16 13  2  0
 17 16  1  0
  9 11  1  0
 14  8  2  0
 17 15  2  0
M  END
> <chembl_id>
CHEMBL1706

> <chembl_pref_name>
NAPHAZOLINE HYDROCHLORIDE

$$$$

     RDKit          2D

 18 17  0  0  0  0  0  0  0  0999 V2000
   -1.2208   -2.7792    0.0000 Cl  0  0  0  0  0  0  0  0  0  0  0  0
   -0.5333   -1.7917    0.0000 C   0  0  0  0  0  0  0  0  0  0  0  0
   -1.7500   -1.7917    0.0000 C   0  0  0  0  0  0  0  0  0  0  0  0
   -1.1375   -2.1542    0.0000 N   0  0  0  0  0  0  0  0  0  0  0  0
    0.0750   -2.1542    0.0000 N   0  0  0  0  0  0  0  0  0  0  0  0
   -0.5333   -1.0917    0.0000 N   0  0  0  0  0  0  0  0  0  0  0  0
   -1.7500   -1.0917    0.0000 N   0  0  0  0  0  0  0  0  0  0  0  0
   -2.3750   -2.1542    0.0000 N   0  0  0  0  0  0  0  0  0  0  0  0
    0.7042   -1.7917    0.0000 C   0  0  0  0  0  0  0  0  0  0  0  0
    1.9292   -1.0917    0.0000 C   0  0  0  0  0  0  0  0  0  0  0  0
    2.5542   -0.7292    0.0000 Cl  0  0  0  0  0  0  0  0  0  0  0  0
    1.3167   -2.1417    0.0000 C   0  0  0  0  0  0  0  0  0  0  0  0
    0.7042   -1.0917    0.0000 C   0  0  0  0  0  0  0  0  0  0  0  0
    1.3167   -0.7375    0.0000 C   0  0  0  0  0  0  0  0  0  0  0  0
    1.9292   -1.7917    0.0000 C   0  0  0  0  0  0  0  0  0  0  0  0
   -2.9875   -1.7917    0.0000 C   0  0  0  0  0  0  0  0  0  0  0  0
   -3.6083   -2.1542    0.0000 C   0  0  0  0  0  0  0  0  0  0  0  0
   -2.9875   -1.0917    0.0000 C   0  0  0  0  0  0  0  0  0  0  0  0
  3  4  1  0
  4  2  1  0
  5  2  1  0
  6  2  2  0
  7  3  2  0
  8  3  1  0
  9  5  1  0
 10 15  2  0
 11 10  1  0
 12  9  2  0
 13  9  1  0
 14 13  2  0
 15 12  1  0
 16  8  1  0
 17 16  1  0
 18 16  1  0
 10 14  1  0
M  END
> <chembl_id>
CHEMBL1201059

> <chembl_pref_name>
CHLOROGUANIDE HYDROCHLORIDE

$$$$

     RDKit          2D

 16 16  0  0  1  0  0  0  0  0999 V2000
   -0.5500   -2.3167    0.0000 C   0  0  0  0  0  0  0  0  0  0  0  0
    0.0542   -2.6625    0.0000 C   0  0  0  0  0  0  0  0  0  0  0  0
    0.6792   -2.3042    0.0000 C   0  0  0  0  0  0  0  0  0  0  0  0
    1.2875   -2.6667    0.0000 C   0  0  0  0  0  0  0  0  0  0  0  0
   -1.1583   -2.6667    0.0000 F   0  0  0  0  0  0  0  0  0  0  0  0
   -0.5500   -1.6292    0.0000 F   0  0  0  0  0  0  0  0  0  0  0  0
   -1.1833   -1.9542    0.0000 F   0  0  0  0  0  0  0  0  0  0  0  0
    1.9000   -2.3125    0.0000 C   0  0  0  0  0  0  0  0  0  0  0  0
    3.1500   -2.3125    0.0000 N   0  0  0  0  0  0  0  0  0  0  0  0
    0.0542   -3.3917    0.0000 C   0  0  0  0  0  0  0  0  0  0  0  0
    2.5250   -2.6667    0.0000 C   0  0  0  0  0  0  0  0  0  0  0  0
    0.6875   -3.7417    0.0000 C   0  0  0  0  0  0  0  0  0  0  0  0
    1.2917   -3.3875    0.0000 C   0  0  0  0  0  0  0  0  0  0  0  0
    3.7667   -2.6667    0.0000 C   0  0  0  0  0  0  0  0  0  0  0  0
    2.5250   -3.3167    0.0000 C   0  0  0  0  0  0  0  0  0  0  0  0
    4.3917   -2.3000    0.0000 C   0  0  0  0  0  0  0  0  0  0  0  0
  2  1  1  0
  3  2  1  0
  4  3  2  0
  5  1  1  0
  6  1  1  0
  7  1  1  0
  8  4  1  0
  9 11  1  0
 10  2  2  0
 11  8  1  0
 12 10  1  0
 13 12  2  0
 14  9  1  0
 11 15  1  1
 16 14  1  0
 13  4  1  0
M  END
> <chembl_id>
CHEMBL248702

> <chembl_pref_name>
DEXFENFLURAMINE

$$$$

     RDKit          2D

 10 12  0  0  0  0  0  0  0  0999 V2000
    0.3542    1.5500    0.0000 N   0  0  0  0  0  0  0  0  0  0  0  0
   -0.1208   -0.6000    0.0000 N   0  0  0  0  0  0  0  0  0  0  0  0
   -0.9583   -0.4625    0.0000 N   0  0  0  0  0  0  0  0  0  0  0  0
    1.2167   -0.3792    0.0000 N   0  0  0  0  0  0  0  0  0  0  0  0
   -0.1208    0.6583    0.0000 C   0  0  0  0  0  0  0  0  0  0  0  0
   -0.9583    0.7083    0.0000 C   0  0  0  0  0  0  0  0  0  0  0  0
    1.2167    0.6833    0.0000 C   0  0  0  0  0  0  0  0  0  0  0  0
   -1.7458   -1.5792    0.0000 C   0  0  0  0  0  0  0  0  0  0  0  0
    1.7375   -1.7167    0.0000 C   0  0  0  0  0  0  0  0  0  0  0  0
   -0.0833   -1.4792    0.0000 C   0  0  0  0  0  0  0  0  0  0  0  0
  2  5  1  0
  3  6  1  0
  4  7  1  0
  5  1  1  0
  6  1  1  0
  7  1  1  0
  8  3  1  0
  9  4  1  0
 10  4  1  0
  3 10  1  0
  2  9  1  0
  2  8  1  0
M  END
> <chembl_id>
CHEMBL1201270

> <chembl_pref_name>
METHENAMINE

$$$$

     RDKit          2D

  2  0  0  0  0  0  0  0  0  0999 V2000
   -2.1583   -2.2167    0.0000 Rb  0  0  0  0  0 15  0  0  0  0  0  0
   -1.1708   -2.2000    0.0000 Cl  0  0  0  0  0  0  0  0  0  0  0  0
M  CHG  2   1   1   2  -1
M  ISO  1   1  82
M  END
> <chembl_id>
CHEMBL1200727

> <chembl_pref_name>
RUBIDIUM CHLORIDE RB 82

$$$$

     RDKit          2D

 10 10  0  0  0  0  0  0  0  0999 V2000
    0.4000   -0.5625    0.0000 N   0  0  0  0  0  0  0  0  0  0  0  0
    1.3667   -0.0042    0.0000 C   0  0  0  0  0  0  0  0  0  0  0  0
    3.2792   -0.0042    0.0000 N   0  0  0  0  0  0  0  0  0  0  0  0
    2.3167   -0.5625    0.0000 C   0  0  0  0  0  0  0  0  0  0  0  0
    0.4000   -1.6667    0.0000 C   0  0  0  0  0  0  0  0  0  0  0  0
   -0.5625   -0.0042    0.0000 C   0  0  0  0  0  0  0  0  0  0  0  0
    4.2625   -0.5625    0.0000 O   0  0  0  0  0  0  0  0  0  0  0  0
    1.3667    1.1208    0.0000 C   0  0  0  0  0  0  0  0  0  0  0  0
   -0.5625    1.1208    0.0000 C   0  0  0  0  0  0  0  0  0  0  0  0
    0.4000    1.6708    0.0000 C   0  0  0  0  0  0  0  0  0  0  0  0
  2  1  2  0
  4  3  2  3
  4  2  1  0
  5  1  1  0
  6  1  1  0
  7  3  1  0
  8  2  1  0
  9  6  2  0
 10  9  1  0
  8 10  2  0
M  CHG  1   1   1
M  END
> <chembl_id>
CHEMBL1420

> <chembl_pref_name>
PRALIDOXIME

$$$$

     RDKit          2D

 21 23  0  0  0  0  0  0  0  0999 V2000
    3.2625   -5.5500    0.0000 C   0  0  0  0  0  0  0  0  0  0  0  0
    3.8750   -5.9042    0.0000 C   0  0  0  0  0  0  0  0  0  0  0  0
    5.1042   -5.9000    0.0000 N   0  0  0  0  0  0  0  0  0  0  0  0
    3.2625   -4.8375    0.0000 C   0  0  0  0  0  0  0  0  0  0  0  0
    2.6500   -5.9042    0.0000 C   0  0  0  0  0  0  0  0  0  0  0  0
    2.0292   -5.5542    0.0000 N   0  0  0  0  0  0  0  0  0  0  0  0
    4.4917   -5.5500    0.0000 C   0  0  0  0  0  0  0  0  0  0  0  0
    3.8792   -4.4875    0.0000 C   0  0  0  0  0  0  0  0  0  0  0  0
    2.6417   -4.4917    0.0000 C   0  0  0  0  0  0  0  0  0  0  0  0
    2.6417   -3.7792    0.0000 C   0  0  0  0  0  0  0  0  0  0  0  0
    3.8792   -3.7750    0.0000 C   0  0  0  0  0  0  0  0  0  0  0  0
    3.2625   -3.4167    0.0000 C   0  0  0  0  0  0  0  0  0  0  0  0
    5.3042   -6.5792    0.0000 C   0  0  0  0  0  0  0  0  0  0  0  0
    5.6917   -5.5042    0.0000 C   0  0  0  0  0  0  0  0  0  0  0  0
    1.4167   -5.9125    0.0000 C   0  0  0  0  0  0  0  0  0  0  0  0
    2.6500   -6.6250    0.0000 C   0  0  0  0  0  0  0  0  0  0  0  0
    3.2542   -2.7042    0.0000 C   0  0  0  0  0  0  0  0  0  0  0  0
    6.0125   -6.6042    0.0000 C   0  0  0  0  0  0  0  0  0  0  0  0
    6.2500   -5.9375    0.0000 C   0  0  0  0  0  0  0  0  0  0  0  0
    1.4167   -6.6250    0.0000 C   0  0  0  0  0  0  0  0  0  0  0  0
    2.0292   -6.9792    0.0000 C   0  0  0  0  0  0  0  0  0  0  0  0
  2  1  2  0
  3  7  1  0
  4  1  1  0
  5  1  1  0
  6  5  2  0
  7  2  1  0
  8  4  2  0
  9  4  1  0
 10  9  2  0
 11  8  1  0
 12 10  1  0
 13  3  1  0
 14  3  1  0
 15  6  1  0
 16  5  1  0
 17 12  1  0
 18 13  1  0
 19 14  1  0
 20 21  1  0
 21 16  2  0
 20 15  2  0
 12 11  2  0
 19 18  1  0
M  END
> <chembl_id>
CHEMBL855

> <chembl_pref_name>
TRIPROLIDINE

$$$$

     RDKit          2D

 15 16  0  0  0  0  0  0  0  0999 V2000
    6.0750   -4.5042    0.0000 N   0  0  0  0  0  0  0  0  0  0  0  0
    6.3042   -5.1875    0.0000 C   0  0  0  0  0  0  0  0  0  0  0  0
    5.3667   -4.5042    0.0000 C   0  0  0  0  0  0  0  0  0  0  0  0
    5.7292   -5.6042    0.0000 N   0  0  0  0  0  0  0  0  0  0  0  0
    5.1542   -5.1875    0.0000 C   0  0  0  0  0  0  0  0  0  0  0  0
    6.9792   -5.4000    0.0000 O   0  0  0  0  0  0  0  0  0  0  0  0
    4.9542   -3.9375    0.0000 O   0  0  0  0  0  0  0  0  0  0  0  0
    4.5292   -5.5375    0.0000 C   0  0  0  0  0  0  0  0  0  0  0  0
    6.4917   -3.9292    0.0000 C   0  0  0  0  0  0  0  0  0  0  0  0
    3.9250   -5.1792    0.0000 C   0  0  0  0  0  0  0  0  0  0  0  0
    4.5292   -6.2417    0.0000 C   0  0  0  0  0  0  0  0  0  0  0  0
    6.2042   -3.2875    0.0000 C   0  0  0  0  0  0  0  0  0  0  0  0
    3.3042   -5.5292    0.0000 C   0  0  0  0  0  0  0  0  0  0  0  0
    3.9042   -6.6000    0.0000 C   0  0  0  0  0  0  0  0  0  0  0  0
    3.3000   -6.2375    0.0000 C   0  0  0  0  0  0  0  0  0  0  0  0
  2  1  1  0
  3  1  1  0
  4  2  1  0
  5  3  1  0
  6  2  2  0
  7  3  2  0
  8  5  1  0
  9  1  1  0
 10  8  2  0
 11  8  1  0
 12  9  1  0
 13 10  1  0
 14 11  2  0
 15 14  1  0
  4  5  1  0
 15 13  2  0
M  END
> <chembl_id>
CHEMBL1095

> <chembl_pref_name>
ETHOTOIN

$$$$

     RDKit          2D

  1  0  0  0  0  0  0  0  0  0999 V2000
    3.2125   -1.7500    0.0000 N   0  0  0  0  0  0  0  0  0  0  0  0
M  ISO  1   1  13
M  END
> <chembl_id>
CHEMBL1201189

> <chembl_pref_name>
AMMONIA N 13

$$$$

     RDKit          2D

 15 14  0  0  0  0  0  0  0  0999 V2000
    5.6000   -5.7875    0.0000 N   0  0  0  0  0  0  0  0  0  0  0  0
    6.8375   -4.3667    0.0000 N   0  0  0  0  0  0  0  0  0  0  0  0
    3.1417   -4.3792    0.0000 N   0  0  0  0  0  0  0  0  0  0  0  0
    4.9875   -5.4292    0.0000 O   0  0  0  0  0  0  0  0  0  0  0  0
    5.6000   -6.4917    0.0000 O   0  0  0  0  0  0  0  0  0  0  0  0
    7.4292   -4.7417    0.0000 O   0  0  0  0  0  0  0  0  0  0  0  0
    3.1417   -3.6667    0.0000 O   0  0  0  0  0  0  0  0  0  0  0  0
    6.2250   -4.7250    0.0000 O   0  0  0  0  0  0  0  0  0  0  0  0
    3.7542   -4.7250    0.0000 O   0  0  0  0  0  0  0  0  0  0  0  0
    4.9875   -4.7250    0.0000 C   0  0  0  0  0  0  0  0  0  0  0  0
    6.2125   -5.4167    0.0000 O   0  0  0  0  0  0  0  0  0  0  0  0
    2.5292   -4.7417    0.0000 O   0  0  0  0  0  0  0  0  0  0  0  0
    6.8292   -3.6542    0.0000 O   0  0  0  0  0  0  0  0  0  0  0  0
    5.6042   -4.3667    0.0000 C   0  0  0  0  0  0  0  0  0  0  0  0
    4.3667   -4.3667    0.0000 C   0  0  0  0  0  0  0  0  0  0  0  0
  2  8  1  0
  3  9  1  0
  4  1  1  0
  5  1  1  0
  6  2  1  0
  7  3  1  0
  8 14  1  0
  9 15  1  0
 10  4  1  0
 11  1  2  0
 12  3  2  0
 13  2  2  0
 14 10  1  0
 15 10  1  0
M  CHG  6   1   1   2   1   3   1   5  -1   6  -1   7  -1
M  END
> <chembl_id>
CHEMBL730

> <chembl_pref_name>
NITROGLYCERIN

$$$$

     RDKit          2D

 22 24  0  0  0  0  0  0  0  0999 V2000
    1.7250   -3.8417    0.0000 C   0  0  0  0  0  0  0  0  0  0  0  0
    2.1125   -4.4375    0.0000 C   0  0  0  0  0  0  0  0  0  0  0  0
    1.0542   -4.0500    0.0000 C   0  0  0  0  0  0  0  0  0  0  0  0
    1.0542   -4.7875    0.0000 C   0  0  0  0  0  0  0  0  0  0  0  0
    1.7250   -4.9875    0.0000 C   0  0  0  0  0  0  0  0  0  0  0  0
    1.9500   -3.1750    0.0000 C   0  0  0  0  0  0  0  0  0  0  0  0
    2.8292   -4.4375    0.0000 C   0  0  0  0  0  0  0  0  0  0  0  0
    1.4792   -2.6417    0.0000 C   0  0  0  0  0  0  0  0  0  0  0  0
    0.7875   -2.7875    0.0000 N   0  0  0  0  0  0  0  0  0  0  0  0
    3.9125   -5.0500    0.0000 N   0  0  0  0  0  0  0  0  0  0  0  0
    3.1917   -5.0500    0.0000 C   0  0  0  0  0  0  0  0  0  0  0  0
    0.4417   -3.7042    0.0000 C   0  0  0  0  0  0  0  0  0  0  0  0
    0.4417   -5.1292    0.0000 C   0  0  0  0  0  0  0  0  0  0  0  0
    2.6417   -3.0292    0.0000 C   0  0  0  0  0  0  0  0  0  0  0  0
    0.3167   -2.2542    0.0000 C   0  0  0  0  0  0  0  0  0  0  0  0
    1.7042   -1.9667    0.0000 C   0  0  0  0  0  0  0  0  0  0  0  0
    4.2542   -5.6625    0.0000 C   0  0  0  0  0  0  0  0  0  0  0  0
    4.2792   -4.4375    0.0000 C   0  0  0  0  0  0  0  0  0  0  0  0
   -0.1958   -4.0500    0.0000 C   0  0  0  0  0  0  0  0  0  0  0  0
   -0.1958   -4.7875    0.0000 C   0  0  0  0  0  0  0  0  0  0  0  0
    0.5417   -1.5792    0.0000 C   0  0  0  0  0  0  0  0  0  0  0  0
    1.2375   -1.4375    0.0000 C   0  0  0  0  0  0  0  0  0  0  0  0
  2  1  2  0
  3  1  1  0
  4  3  2  0
  5  2  1  0
  6  1  1  0
  7  2  1  0
  8  6  1  0
  9  8  2  0
 10 11  1  0
 11  7  1  0
 12  3  1  0
 13  4  1  0
 14  6  1  0
 15  9  1  0
 16  8  1  0
 17 10  1  0
 18 10  1  0
 19 12  2  0
 20 13  2  0
 21 22  1  0
 22 16  2  0
  4  5  1  0
 20 19  1  0
 21 15  2  0
M  END
> <chembl_id>
CHEMBL22108

> <chembl_pref_name>
DIMETHINDENE

$$$$

     RDKit          2D

 17 16  0  0  0  0  0  0  0  0999 V2000
    8.9280   -7.9204    0.0000 Na  0  0  0  0  0 15  0  0  0  0  0  0
    7.3487   -9.0781    0.0000 N   0  0  0  0  0  0  0  0  0  0  0  0
    6.6270   -9.5044    0.0000 C   0  0  0  0  0  0  0  0  0  0  0  0
    5.9100   -8.2886    0.0000 C   0  0  0  0  0  0  0  0  0  0  0  0
    5.9148   -9.0879    0.0000 C   0  0  0  0  0  0  0  0  0  0  0  0
    6.6173   -7.8622    0.0000 N   0  0  0  0  0  0  0  0  0  0  0  0
    7.3439   -8.2788    0.0000 C   0  0  0  0  0  0  0  0  0  0  0  0
    8.0753   -7.8817    0.0000 S   0  0  0  0  0  0  0  0  0  0  0  0
    6.6318  -10.3328    0.0000 O   0  0  0  0  0  0  0  0  0  0  0  0
    5.1786   -7.8574    0.0000 O   0  0  0  0  0  0  0  0  0  0  0  0
    5.5176   -9.8193    0.0000 C   0  0  0  0  0  0  0  0  0  0  0  0
    5.0865   -9.1072    0.0000 C   0  0  0  0  0  0  0  0  0  0  0  0
    4.6941   -9.8242    0.0000 C   0  0  0  0  0  0  0  0  0  0  0  0
    5.9294  -10.5412    0.0000 C   0  0  0  0  0  0  0  0  0  0  0  0
    4.6747   -8.4145    0.0000 C   0  0  0  0  0  0  0  0  0  0  0  0
    4.2872  -10.5412    0.0000 C   0  0  0  0  0  0  0  0  0  0  0  0
    3.4637  -10.5459    0.0000 C   0  0  0  0  0  0  0  0  0  0  0  0
  3  2  1  0
  4  5  1  0
  5  3  1  0
  6  7  1  0
  7  2  1  0
  8  7  2  0
  9  3  2  0
 10  4  2  0
 11  5  1  0
 12  5  1  0
 13 11  1  0
 14 11  1  0
 15 12  1  0
 16 13  1  0
 17 16  1  0
  6  4  1  0
M  CHG  2   1   1   2  -1
M  END
> <chembl_id>
CHEMBL738

> <chembl_pref_name>
THIOPENTAL SODIUM

$$$$

     RDKit          2D

 12 12  0  0  0  0  0  0  0  0999 V2000
    7.8787   -5.1912    0.0000 C   0  0  0  0  0  0  0  0  0  0  0  0
    7.8787   -4.3792    0.0000 N   0  0  0  0  0  0  0  0  0  0  0  0
    7.1633   -5.6021    0.0000 N   0  0  0  0  0  0  0  0  0  0  0  0
    3.6010   -5.2251    0.0000 I   0  0  0  0  0  0  0  0  0  0  0  0
    8.5843   -5.6021    0.0000 N   0  0  0  0  0  0  0  0  0  0  0  0
    4.2922   -5.6166    0.0000 C   0  0  0  0  0  0  0  0  0  0  0  0
    6.4576   -5.1912    0.0000 C   0  0  0  0  0  0  0  0  0  0  0  0
    5.0027   -5.2057    0.0000 C   0  0  0  0  0  0  0  0  0  0  0  0
    5.7181   -5.5972    0.0000 C   0  0  0  0  0  0  0  0  0  0  0  0
    5.0027   -6.8588    0.0000 C   0  0  0  0  0  0  0  0  0  0  0  0
    4.2922   -6.4431    0.0000 C   0  0  0  0  0  0  0  0  0  0  0  0
    5.7181   -6.4431    0.0000 C   0  0  0  0  0  0  0  0  0  0  0  0
  2  1  2  0
  3  1  1  0
  4  6  1  0
  5  1  1  0
  6  8  2  0
  7  3  1  0
  8  9  1  0
  9  7  1  0
 10 12  1  0
 11 10  2  0
 12  9  2  0
  6 11  1  0
M  ISO  1   4 131
M  END
> <chembl_id>
CHEMBL1615779

> <chembl_pref_name>
IOBENGUANE I 131

$$$$

     RDKit          2D

 12 13  0  0  1  0  0  0  0  0999 V2000
    4.6792   -5.1792    0.0000 C   0  0  0  0  0  0  0  0  0  0  0  0
    4.6792   -4.4875    0.0000 C   0  0  0  0  0  0  0  0  0  0  0  0
    4.0167   -5.4292    0.0000 O   0  0  0  0  0  0  0  0  0  0  0  0
    5.3417   -4.2292    0.0000 O   0  0  0  0  0  0  0  0  0  0  0  0
    3.9792   -4.2542    0.0000 C   0  0  0  0  0  0  0  0  0  0  0  0
    5.3875   -5.4000    0.0000 C   0  0  0  0  0  0  0  0  0  0  0  0
    5.7917   -4.8167    0.0000 C   0  0  0  0  0  0  0  0  0  0  0  0
    3.5667   -4.8417    0.0000 C   0  0  0  0  0  0  0  0  0  0  0  0
    5.6417   -6.0667    0.0000 O   0  0  0  0  0  0  0  0  0  0  0  0
    3.7417   -3.5792    0.0000 O   0  0  0  0  0  0  0  0  0  0  0  0
    4.6792   -5.8250    0.0000 H   0  0  0  0  0  0  0  0  0  0  0  0
    4.6792   -3.8375    0.0000 H   0  0  0  0  0  0  0  0  0  0  0  0
  2  1  1  0
  3  1  1  0
  4  2  1  0
  5  2  1  0
  6  1  1  0
  7  6  1  0
  8  3  1  0
  6  9  1  1
  5 10  1  6
  1 11  1  6
  2 12  1  6
  7  4  1  0
  8  5  1  0
M  END
> <chembl_id>
CHEMBL1200660

> <chembl_pref_name>
ISOSORBIDE

$$$$

     RDKit          2D

 18 17  0  0  0  0  0  0  0  0999 V2000
    6.2417   -4.2792    0.0000 C   0  0  0  0  0  0  0  0  0  0  0  0
    6.2417   -3.5667    0.0000 O   0  0  0  0  0  0  0  0  0  0  0  0
    6.8667   -4.6292    0.0000 O   0  0  0  0  0  0  0  0  0  0  0  0
    5.6167   -4.6042    0.0000 C   0  0  0  0  0  0  0  0  0  0  0  0
    3.6167   -3.4667    0.0000 C   0  0  0  0  0  0  0  0  0  0  0  0
    5.4500   -2.3125    0.0000 C   0  0  0  0  0  0  0  0  0  0  0  0
    4.2375   -2.3667    0.0000 N   0  0  0  0  0  0  0  0  0  0  0  0
    5.4500   -3.0250    0.0000 N   0  0  0  0  0  0  0  0  0  0  0  0
    3.0125   -3.1042    0.0000 C   0  0  0  0  0  0  0  0  0  0  0  0
    3.6167   -4.1750    0.0000 C   0  0  0  0  0  0  0  0  0  0  0  0
    4.8375   -1.9917    0.0000 N   0  0  0  0  0  0  0  0  0  0  0  0
    4.2375   -3.1000    0.0000 C   0  0  0  0  0  0  0  0  0  0  0  0
    6.0417   -1.9542    0.0000 N   0  0  0  0  0  0  0  0  0  0  0  0
    3.0125   -2.3917    0.0000 Cl  0  0  0  0  0  0  0  0  0  0  0  0
    4.2375   -4.5292    0.0000 Cl  0  0  0  0  0  0  0  0  0  0  0  0
    2.3917   -4.1667    0.0000 C   0  0  0  0  0  0  0  0  0  0  0  0
    3.0125   -4.5292    0.0000 C   0  0  0  0  0  0  0  0  0  0  0  0
    2.3917   -3.4667    0.0000 C   0  0  0  0  0  0  0  0  0  0  0  0
  2  1  2  0
  3  1  1  0
  4  1  1  0
  6 11  1  0
  7 12  2  0
  8  6  2  0
  9  5  2  0
 10  5  1  0
 11  7  1  0
 12  5  1  0
 13  6  1  0
 14  9  1  0
 15 10  1  0
 16 17  1  0
 17 10  2  0
 18  9  1  0
 16 18  2  0
M  END
> <chembl_id>
CHEMBL1200560

> <chembl_pref_name>
GUANABENZ ACETATE

$$$$

     RDKit          2D

 18 19  0  0  0  0  0  0  0  0999 V2000
    2.6500  -15.6917    0.0000 C   0  0  0  0  0  0  0  0  0  0  0  0
    3.2792  -15.3417    0.0000 C   0  0  0  0  0  0  0  0  0  0  0  0
    6.3792  -16.4167    0.0000 C   0  0  0  0  0  0  0  0  0  0  0  0
    2.0667  -15.2875    0.0000 S   0  0  0  0  0  0  0  0  0  0  0  0
    5.7625  -16.7667    0.0000 C   0  0  0  0  0  0  0  0  0  0  0  0
    3.9042  -15.7042    0.0000 C   0  0  0  0  0  0  0  0  0  0  0  0
    5.1292  -16.4125    0.0000 C   0  0  0  0  0  0  0  0  0  0  0  0
    2.4458  -16.3750    0.0000 C   0  0  0  0  0  0  0  0  0  0  0  0
    1.5042  -15.7042    0.0000 C   0  0  0  0  0  0  0  0  0  0  0  0
    3.2792  -14.6292    0.0000 O   0  0  0  0  0  0  0  0  0  0  0  0
    6.3792  -15.7042    0.0000 O   0  0  0  0  0  0  0  0  0  0  0  0
    1.7292  -16.3792    0.0000 C   0  0  0  0  0  0  0  0  0  0  0  0
    4.5167  -15.3375    0.0000 C   0  0  0  0  0  0  0  0  0  0  0  0
    3.9042  -16.4125    0.0000 C   0  0  0  0  0  0  0  0  0  0  0  0
    5.1292  -15.7000    0.0000 C   0  0  0  0  0  0  0  0  0  0  0  0
    4.5167  -16.7542    0.0000 C   0  0  0  0  0  0  0  0  0  0  0  0
    6.9917  -16.7667    0.0000 O   0  0  0  0  0  0  0  0  0  0  0  0
    5.7542  -17.4667    0.0000 C   0  0  0  0  0  0  0  0  0  0  0  0
  2  1  1  0
  3  5  1  0
  4  1  1  0
  5  7  1  0
  6  2  1  0
  7 16  2  0
  8  1  2  0
  9  4  1  0
 10  2  2  0
 11  3  2  0
 12  8  1  0
 13  6  1  0
 14  6  2  0
 15 13  2  0
 16 14  1  0
 17  3  1  0
 18  5  1  0
  9 12  2  0
  7 15  1  0
M  END
> <chembl_id>
CHEMBL956

> <chembl_pref_name>
SUPROFEN

$$$$

     RDKit          2D

 17 16  0  0  0  0  0  0  0  0999 V2000
    5.6111   -4.1011    0.0000 Na  0  0  0  0  0 15  0  0  0  0  0  0
    7.1094   -3.0218    0.0000 N   0  0  0  0  0  0  0  0  0  0  0  0
    7.8418   -2.6098    0.0000 C   0  0  0  0  0  0  0  0  0  0  0  0
    7.1171   -1.3716    0.0000 C   0  0  0  0  0  0  0  0  0  0  0  0
    7.8297   -1.7874    0.0000 C   0  0  0  0  0  0  0  0  0  0  0  0
    6.4132   -1.7761    0.0000 N   0  0  0  0  0  0  0  0  0  0  0  0
    6.3968   -2.6060    0.0000 C   0  0  0  0  0  0  0  0  0  0  0  0
    8.5435   -3.0193    0.0000 O   0  0  0  0  0  0  0  0  0  0  0  0
    7.1133   -0.5349    0.0000 O   0  0  0  0  0  0  0  0  0  0  0  0
    5.6708   -3.0072    0.0000 O   0  0  0  0  0  0  0  0  0  0  0  0
    8.6510   -1.8182    0.0000 C   0  0  0  0  0  0  0  0  0  0  0  0
    7.8096   -0.9702    0.0000 C   0  0  0  0  0  0  0  0  0  0  0  0
    9.0711   -1.0984    0.0000 C   0  0  0  0  0  0  0  0  0  0  0  0
    9.0627   -2.5263    0.0000 C   0  0  0  0  0  0  0  0  0  0  0  0
    8.5088   -0.5243    0.0000 C   0  0  0  0  0  0  0  0  0  0  0  0
    9.9051   -1.1075    0.0000 C   0  0  0  0  0  0  0  0  0  0  0  0
   10.3026   -1.8316    0.0000 C   0  0  0  0  0  0  0  0  0  0  0  0
  3  2  1  0
  4  6  1  0
  5  3  1  0
  6  7  2  0
  7  2  1  0
  8  3  2  0
  9  4  2  0
 10  7  1  0
 11  5  1  0
 12  5  1  0
 13 11  1  0
 14 11  1  0
 15 12  1  0
 16 13  1  0
 17 16  1  0
  5  4  1  0
M  CHG  2   1   1  10  -1
M  END
> <chembl_id>
CHEMBL971

> <chembl_pref_name>
PENTOBARBITAL SODIUM

$$$$

     RDKit          2D

 10  9  0  0  0  0  0  0  0  0999 V2000
   -1.6875   -1.0667    0.0000 C   0  0  0  0  0  0  0  0  0  0  0  0
   -0.4708   -1.0417    0.0000 O   0  0  0  0  0  0  0  0  0  0  0  0
   -1.0833   -1.4000    0.0000 C   0  0  0  0  0  0  0  0  0  0  0  0
    0.1500   -1.4000    0.0000 C   0  0  0  0  0  0  0  0  0  0  0  0
   -2.3000   -1.4417    0.0000 F   0  0  0  0  0  0  0  0  0  0  0  0
   -1.3375   -0.4500    0.0000 F   0  0  0  0  0  0  0  0  0  0  0  0
   -2.0458   -0.4500    0.0000 F   0  0  0  0  0  0  0  0  0  0  0  0
   -1.0833   -2.0917    0.0000 F   0  0  0  0  0  0  0  0  0  0  0  0
    0.7625   -1.0500    0.0000 F   0  0  0  0  0  0  0  0  0  0  0  0
    0.1500   -2.1042    0.0000 F   0  0  0  0  0  0  0  0  0  0  0  0
  2  3  1  0
  3  1  1  0
  4  2  1  0
  5  1  1  0
  6  1  1  0
  7  1  1  0
  8  3  1  0
  9  4  1  0
 10  4  1  0
M  END
> <chembl_id>
CHEMBL1200733

> <chembl_pref_name>
DESFLURANE

$$$$

     RDKit          2D

 18 19  0  0  0  0  0  0  0  0999 V2000
    5.0042  -19.6667    0.0000 C   0  0  0  0  0  0  0  0  0  0  0  0
    5.0125  -18.9542    0.0000 C   0  0  0  0  0  0  0  0  0  0  0  0
    4.3917  -20.0167    0.0000 N   0  0  0  0  0  0  0  0  0  0  0  0
    3.7875  -18.9542    0.0000 N   0  0  0  0  0  0  0  0  0  0  0  0
    3.7792  -19.6667    0.0000 C   0  0  0  0  0  0  0  0  0  0  0  0
    4.4125  -18.6042    0.0000 C   0  0  0  0  0  0  0  0  0  0  0  0
    5.6792  -19.8917    0.0000 N   0  0  0  0  0  0  0  0  0  0  0  0
    5.6875  -18.7417    0.0000 N   0  0  0  0  0  0  0  0  0  0  0  0
    6.1000  -19.3250    0.0000 C   0  0  0  0  0  0  0  0  0  0  0  0
    5.7125  -18.0417    0.0000 C   0  0  0  0  0  0  0  0  0  0  0  0
    3.1667  -20.0125    0.0000 O   0  0  0  0  0  0  0  0  0  0  0  0
    4.4125  -17.8917    0.0000 O   0  0  0  0  0  0  0  0  0  0  0  0
    4.3917  -20.7292    0.0000 C   0  0  0  0  0  0  0  0  0  0  0  0
    3.1750  -18.5917    0.0000 C   0  0  0  0  0  0  0  0  0  0  0  0
    6.3292  -17.7000    0.0000 C   0  0  0  0  0  0  0  0  0  0  0  0
    6.3500  -16.9917    0.0000 O   0  0  0  0  0  0  0  0  0  0  0  0
    7.5750  -17.7125    0.0000 O   0  0  0  0  0  0  0  0  0  0  0  0
    6.9417  -18.0583    0.0000 C   0  0  0  0  0  0  0  0  0  0  0  0
  2  1  2  0
  3  1  1  0
  4  5  1  0
  5  3  1  0
  6  2  1  0
  7  1  1  0
  8  2  1  0
  9  7  2  0
 10  8  1  0
 11  5  2  0
 12  6  2  0
 13  3  1  0
 14  4  1  0
 15 10  1  0
 16 15  1  0
 17 18  1  0
 18 15  1  0
  8  9  1  0
  6  4  1  0
M  END
> <chembl_id>
CHEMBL1752

> <chembl_pref_name>
DYPHYLLINE

$$$$

     RDKit          2D

 17 17  0  0  0  0  0  0  0  0999 V2000
   -1.1458    0.1708    0.0000 C   0  0  0  0  0  0  0  0  0  0  0  0
   -0.5333    0.5333    0.0000 C   0  0  0  0  0  0  0  0  0  0  0  0
    0.0875    0.1708    0.0000 C   0  0  0  0  0  0  0  0  0  0  0  0
   -1.1458   -0.5417    0.0000 C   0  0  0  0  0  0  0  0  0  0  0  0
    1.9292    0.5333    0.0000 N   0  0  0  0  0  0  0  0  0  0  0  0
    0.0875   -0.5417    0.0000 C   0  0  0  0  0  0  0  0  0  0  0  0
    2.5417    0.1833    0.0000 C   0  0  0  0  0  0  0  0  0  0  0  0
   -0.5333   -0.9000    0.0000 C   0  0  0  0  0  0  0  0  0  0  0  0
    1.3167    0.1750    0.0000 C   0  0  0  0  0  0  0  0  0  0  0  0
    0.7042    0.5333    0.0000 C   0  0  0  0  0  0  0  0  0  0  0  0
   -1.7625   -0.9000    0.0000 O   0  0  0  0  0  0  0  0  0  0  0  0
   -1.7583    0.5250    0.0000 C   0  0  0  0  0  0  0  0  0  0  0  0
    0.7000    1.2375    0.0000 O   0  0  0  0  0  0  0  0  0  0  0  0
   -2.3750    0.1708    0.0000 O   0  0  0  0  0  0  0  0  0  0  0  0
    3.1500    0.5417    0.0000 C   0  0  0  0  0  0  0  0  0  0  0  0
    2.8917   -0.4292    0.0000 C   0  0  0  0  0  0  0  0  0  0  0  0
    2.1792   -0.4292    0.0000 C   0  0  0  0  0  0  0  0  0  0  0  0
  2  1  1  0
  3  2  2  0
  4  1  2  0
  5  9  1  0
  6  3  1  0
  7  5  1  0
  8  4  1  0
  9 10  1  0
 10  3  1  0
 11  4  1  0
 12  1  1  0
 13 10  1  0
 14 12  1  0
 15  7  1  0
 16  7  1  0
 17  7  1  0
  8  6  2  0
M  END
> <chembl_id>
CHEMBL714

> <chembl_pref_name>
ALBUTEROL

$$$$

     RDKit          2D

  7  4  0  0  0  0  0  0  0  0999 V2000
    2.5250   -4.2500    0.0000 Na  0  0  0  0  0 15  0  0  0  0  0  0
    0.9000   -3.8750    0.0000 P   0  0  0  0  0  0  0  0  0  0  0  0
    0.2917   -4.2292    0.0000 O   0  0  0  0  0  0  0  0  0  0  0  0
    1.5042   -4.2292    0.0000 O   0  0  0  0  0  0  0  0  0  0  0  0
    1.2500   -3.2542    0.0000 O   0  0  0  0  0  0  0  0  0  0  0  0
    0.5417   -3.2542    0.0000 O   0  0  0  0  0  0  0  0  0  0  0  0
   -0.9083   -4.2792    0.0000 Na  0  0  0  0  0 15  0  0  0  0  0  0
  3  2  1  0
  4  2  1  0
  5  2  2  0
  6  2  1  0
M  CHG  4   1   1   3  -1   4  -1   7   1
M  END
> <chembl_id>
CHEMBL1060

> <chembl_pref_name>
SODIUM PHOSPHATE

$$$$

     RDKit          2D

 19 19  0  0  0  0  0  0  0  0999 V2000
    1.2542   -1.0917    0.0000 S   0  0  0  0  0  0  0  0  0  0  0  0
    0.6542   -0.7292    0.0000 C   0  0  0  0  0  0  0  0  0  0  0  0
    1.8750   -0.7417    0.0000 N   0  0  0  0  0  0  0  0  0  0  0  0
   -1.1958    0.3333    0.0000 C   0  0  0  0  0  0  0  0  0  0  0  0
    0.9000   -1.7042    0.0000 O   0  0  0  0  0  0  0  0  0  0  0  0
    1.6042   -1.7042    0.0000 O   0  0  0  0  0  0  0  0  0  0  0  0
   -0.5750   -0.0167    0.0000 C   0  0  0  0  0  0  0  0  0  0  0  0
   -1.1958    1.0458    0.0000 O   0  0  0  0  0  0  0  0  0  0  0  0
    0.0292   -1.0875    0.0000 C   0  0  0  0  0  0  0  0  0  0  0  0
    0.6542   -0.0292    0.0000 C   0  0  0  0  0  0  0  0  0  0  0  0
    0.0375    0.3250    0.0000 C   0  0  0  0  0  0  0  0  0  0  0  0
   -0.5833   -0.7292    0.0000 C   0  0  0  0  0  0  0  0  0  0  0  0
   -1.8083   -0.0042    0.0000 O   0  0  0  0  0  0  0  0  0  0  0  0
    2.4917   -1.1042    0.0000 C   0  0  0  0  0  0  0  0  0  0  0  0
    1.8792   -0.0333    0.0000 C   0  0  0  0  0  0  0  0  0  0  0  0
    2.4917    0.3125    0.0000 C   0  0  0  0  0  0  0  0  0  0  0  0
    3.1042   -0.7667    0.0000 C   0  0  0  0  0  0  0  0  0  0  0  0
    3.7167   -1.1292    0.0000 C   0  0  0  0  0  0  0  0  0  0  0  0
    3.1042   -0.0500    0.0000 C   0  0  0  0  0  0  0  0  0  0  0  0
  2  1  1  0
  3  1  1  0
  4  7  1  0
  5  1  2  0
  6  1  2  0
  7 11  1  0
  8  4  2  0
  9  2  2  0
 10  2  1  0
 11 10  2  0
 12  9  1  0
 13  4  1  0
 14  3  1  0
 15  3  1  0
 16 15  1  0
 17 14  1  0
 18 17  1  0
 19 16  1  0
  7 12  2  0
M  END
> <chembl_id>
CHEMBL897

> <chembl_pref_name>
PROBENECID

$$$$

     RDKit          2D

 13 12  0  0  0  0  0  0  0  0999 V2000
    2.2793    1.4787    0.0000 Cl  0  0  0  0  0  0  0  0  0  0  0  0
    0.8949   -0.5095    0.0000 C   0  0  0  0  0  0  0  0  0  0  0  0
    1.6094   -0.9220    0.0000 O   0  0  0  0  0  0  0  0  0  0  0  0
    0.1804   -0.9220    0.0000 C   0  0  0  0  0  0  0  0  0  0  0  0
    0.1804   -1.7470    0.0000 N   0  0  0  0  0  0  0  0  0  0  0  0
   -0.5340   -0.5095    0.0000 C   0  0  0  0  0  0  0  0  0  0  0  0
   -1.2485   -0.9220    0.0000 O   0  0  0  0  0  0  0  0  0  0  0  0
   -0.5340    0.3155    0.0000 C   0  0  0  0  0  0  0  0  0  0  0  0
   -1.2485    0.7280    0.0000 O   0  0  0  0  0  0  0  0  0  0  0  0
    0.1804    0.7280    0.0000 C   0  0  0  0  0  0  0  0  0  0  0  0
    0.8949    0.3155    0.0000 O   0  0  0  0  0  0  0  0  0  0  0  0
    0.1804    1.5530    0.0000 C   0  0  0  0  0  0  0  0  0  0  0  0
   -0.5340    1.9655    0.0000 O   0  0  0  0  0  0  0  0  0  0  0  0
  2  3  1  0
  2  4  1  0
  2 11  1  0
  4  5  1  6
  4  6  1  0
  6  7  1  1
  6  8  1  0
  8  9  1  6
  8 10  1  0
 10 11  1  0
 10 12  1  1
 12 13  1  0
M  END
> <chembl_id>
CHEMBL1707007

> <chembl_pref_name>
GLUCOSAMINE HYDROCHLORIDE

$$$$

     RDKit          2D

 13 10  0  0  0  0  0  0  0  0999 V2000
   -0.7145   -4.2059    0.0000 O   0  0  0  0  0  0  0  0  0  0  0  0
    0.0000   -3.7934    0.0000 Si  0  0  0  0  0  4  0  0  0  0  0  0
    0.7145   -3.3809    0.0000 O   0  0  0  0  0  0  0  0  0  0  0  0
   -0.4125   -3.0789    0.0000 O   0  0  0  0  0  0  0  0  0  0  0  0
    0.0000   -2.3645    0.0000 Si  0  0  0  0  0  4  0  0  0  0  0  0
   -0.4125   -1.6500    0.0000 O   0  0  0  0  0  0  0  0  0  0  0  0
    0.8250   -2.3645    0.0000 O   0  0  0  0  0  0  0  0  0  0  0  0
    0.4125   -4.5079    0.0000 O   0  0  0  0  0  0  0  0  0  0  0  0
    0.0000   -5.2224    0.0000 Si  0  0  0  0  0  4  0  0  0  0  0  0
    0.4125   -5.9368    0.0000 O   0  0  0  0  0  0  0  0  0  0  0  0
   -0.8250   -5.2224    0.0000 O   0  0  0  0  0  0  0  0  0  0  0  0
    0.0000    0.0000    0.0000 Mg  0  0  0  0  0 15  0  0  0  0  0  0
    1.1196    0.0000    0.0000 Mg  0  0  0  0  0 15  0  0  0  0  0  0
  1  2  1  0
  2  3  1  0
  2  4  1  0
  4  5  1  0
  5  6  2  0
  5  7  1  0
  2  8  1  0
  8  9  1  0
  9 10  2  0
  9 11  1  0
M  CHG  6   1  -1   3  -1   7  -1  11  -1  12   2  13   2
M  END
> <chembl_id>
CHEMBL2096633

> <chembl_pref_name>
MAGNESIUM TRISILICATE

$$$$

     RDKit          2D

  2  0  0  0  0  0  0  0  0  0999 V2000
    4.2500   -6.3125    0.0000 Na  0  0  0  0  0 15  0  0  0  0  0  0
    5.1875   -6.3125    0.0000 F   0  0  0  0  0  0  0  0  0  0  0  0
M  CHG  2   1   1   2  -1
M  END
> <chembl_id>
CHEMBL1528

> <chembl_pref_name>
SODIUM FLUORIDE

$$$$

     RDKit          2D

 12 12  0  0  1  0  0  0  0  0999 V2000
    5.2167   -8.6375    0.0000 C   0  0  0  0  0  0  0  0  0  0  0  0
    4.8625   -9.2500    0.0000 C   0  0  0  0  0  0  0  0  0  0  0  0
    4.1542   -9.2417    0.0000 C   0  0  0  0  0  0  0  0  0  0  0  0
    4.8792   -8.0167    0.0000 O   0  0  0  0  0  0  0  0  0  0  0  0
    3.8125   -8.6292    0.0000 C   0  0  0  0  0  0  0  0  0  0  0  0
    4.1792   -8.0125    0.0000 C   0  0  0  0  0  0  0  0  0  0  0  0
    5.9292   -8.6417    0.0000 O   0  0  0  0  0  0  0  0  0  0  0  0
    5.2167   -9.8750    0.0000 O   0  0  0  0  0  0  0  0  0  0  0  0
    3.7917   -9.8542    0.0000 O   0  0  0  0  0  0  0  0  0  0  0  0
    3.1000   -8.6167    0.0000 O   0  0  0  0  0  0  0  0  0  0  0  0
    3.8375   -7.3875    0.0000 C   0  0  0  0  0  0  0  0  0  0  0  0
    3.1333   -7.3542    0.0000 O   0  0  0  0  0  0  0  0  0  0  0  0
  2  1  1  0
  3  2  1  0
  4  1  1  0
  5  6  1  0
  6  4  1  0
  7  1  2  0
  2  8  1  6
  3  9  1  1
  5 10  1  6
  6 11  1  1
 12 11  1  0
  3  5  1  0
M  END
> <chembl_id>
CHEMBL1200829

> <chembl_pref_name>
GLUCONOLACTONE

$$$$

     RDKit          2D

 12 12  0  0  0  0  0  0  0  0999 V2000
    2.1292   -0.4667    0.0000 C   0  0  0  0  0  0  0  0  0  0  0  0
   -2.3833   -0.5000    0.0000 C   0  0  0  0  0  0  0  0  0  0  0  0
    0.6125   -0.4792    0.0000 C   0  0  0  0  0  0  0  0  0  0  0  0
   -0.1083   -1.7917    0.0000 C   0  0  0  0  0  0  0  0  0  0  0  0
   -0.1208    0.8000    0.0000 C   0  0  0  0  0  0  0  0  0  0  0  0
   -1.6208   -1.8000    0.0000 C   0  0  0  0  0  0  0  0  0  0  0  0
   -1.6458    0.7875    0.0000 C   0  0  0  0  0  0  0  0  0  0  0  0
    2.5000    0.9833    0.0000 O   0  0  0  0  0  0  0  0  0  0  0  0
   -3.5458    0.4458    0.0000 O   0  0  0  0  0  0  0  0  0  0  0  0
    2.0000   -1.9792    0.0000 C   0  0  0  0  0  0  0  0  0  0  0  0
    3.6167   -0.7250    0.0000 C   0  0  0  0  0  0  0  0  0  0  0  0
   -3.5375   -1.4792    0.0000 C   0  0  0  0  0  0  0  0  0  0  0  0
  2  7  1  0
  3  1  1  0
  4  3  1  0
  5  3  1  0
  6  4  1  0
  7  5  1  0
  8  1  1  0
  9  2  1  0
 10  1  1  0
 11  1  1  0
 12  2  1  0
  6  2  1  0
M  END
> <chembl_id>
CHEMBL1651998

> <chembl_pref_name>
TERPIN

$$$$

     RDKit          2D

 12  9  0  0  0  0  0  0  0  0999 V2000
   -0.6751   -1.2623    0.0000 Na  0  0  0  0  0 15  0  0  0  0  0  0
    0.9767   -0.9836    0.0000 C   0  0  0  0  0  0  0  0  0  0  0  0
    0.2472   -1.3906    0.0000 O   0  0  0  0  0  0  0  0  0  0  0  0
    1.6795   -1.3858    0.0000 C   0  0  0  0  0  0  0  0  0  0  0  0
    2.4003   -0.9844    0.0000 C   0  0  0  0  0  0  0  0  0  0  0  0
    3.0901   -1.3906    0.0000 O   0  0  0  0  0  0  0  0  0  0  0  0
    3.8087   -0.9734    0.0000 P   0  0  0  0  0  0  0  0  0  0  0  0
    3.9478   -1.7922    0.0000 O   0  0  0  0  0  0  0  0  0  0  0  0
    4.6624   -1.3868    0.0000 O   0  0  0  0  0  0  0  0  0  0  0  0
    3.8010   -0.1545    0.0000 O   0  0  0  0  0  0  0  0  0  0  0  0
    1.6795   -2.2078    0.0000 O   0  0  0  0  0  0  0  0  0  0  0  0
    1.2329   -2.9062    0.0000 Na  0  0  0  0  0 15  0  0  0  0  0  0
  2  3  1  0
  2  4  1  0
  4  5  1  0
  5  6  1  0
  7  8  1  0
  7  9  1  0
  7  6  1  0
 10  7  2  0
  4 11  1  0
M  CHG  4   1   1   3  -1  11  -1  12   1
M  END
> <chembl_id>
CHEMBL3040581

> <chembl_pref_name>
SODIUM GLYCEROPHOSPHATE

$$$$

     RDKit          2D

  8  6  0  0  0  0  0  0  0  0999 V2000
    2.4375   -2.9196    0.0000 S   0  0  0  0  0  0  0  0  0  0  0  0
    2.4375   -2.0946    0.0000 S   0  0  0  0  0  0  0  0  0  0  0  0
    2.4375   -3.7446    0.0000 O   0  0  0  0  0  0  0  0  0  0  0  0
    3.2625   -2.9196    0.0000 O   0  0  0  0  0  0  0  0  0  0  0  0
    1.6125   -2.9196    0.0000 O   0  0  0  0  0  0  0  0  0  0  0  0
   -0.5625   -1.8750    0.0000 K   0  0  0  0  0  1  0  0  0  0  0  0
    0.1520   -1.4625    0.0000 S   0  0  0  0  0  0  0  0  0  0  0  0
    0.8664   -1.8750    0.0000 K   0  0  0  0  0  1  0  0  0  0  0  0
  1  2  2  0
  1  3  2  0
  1  4  1  0
  1  5  1  0
  6  7  1  0
  7  8  1  0
M  END
> <chembl_id>
CHEMBL3990987

> <chembl_pref_name>
POTASH, SULFURATED

$$$$
